/*--------------------------------*- C++ -*----------------------------------*\
  | =========                 |                                                 |
  | \\      /  F ield         | OpenFOAM: The Open Source CFD Toolbox           |
  |  \\    /   O peration     | Version:  2.3.0                                 |
  |   \\  /    A nd           | Web:      www.OpenFOAM.org                      |
  |    \\/     M anipulation  |                                                 |
  \*---------------------------------------------------------------------------*/
FoamFile
{
  version     2.0;
  format      ascii;
  class       dictionary;
  location    "system";
  object      setFieldsDict;
}
// * * * * * * * * * * * * * * * * * * * * * * * * * * * * * * * * * * * * * //

defaultFieldValues
(
    volScalarFieldValue rho 1.0
    volScalarFieldValue p 1e5
    volScalarFieldValue T 300
    volScalarFieldValue CH4 0
    volScalarFieldValue N2 0.77
    volScalarFieldValue O2 0.23
);

regions
(
    boxToCell
    {
        box (50 -1 -1) (100 1 1);
        fieldValues
        (
            volScalarFieldValue rho 0.125
            volScalarFieldValue p 1e6
            volScalarFieldValue T 500
            volScalarFieldValue CH4 1.0
            volScalarFieldValue N2 0.0
            volScalarFieldValue O2 0.0
        );
    }
);

// ************************************************************************* //
