/*--------------------------------*- C++ -*----------------------------------*\
| =========                 |                                                 |
| \\      /  F ield         | OpenFOAM: The Open Source CFD Toolbox           |
|  \\    /   O peration     | Version:  dev                                   |
|   \\  /    A nd           | Web:      www.OpenFOAM.org                      |
|    \\/     M anipulation  |                                                 |
\*---------------------------------------------------------------------------*/
FoamFile
{
    version     2.0;
    format      ascii;
    class       dictionary;
    location    "system";
    object      controlDict;
}
// * * * * * * * * * * * * * * * * * * * * * * * * * * * * * * * * * * * * * //

application     blastEulerFoam;

startFrom       startTime;

startTime       0;

stopAt          endTime;

endTime         2e-4;

deltaT          1e-6;

writeControl    adjustableRunTime;

writeInterval   1e-5;

purgeWrite      0;

writeFormat     binary;

writePrecision  6;

writeCompression off;

timeFormat      general;

timePrecision   6;

runTimeModifiable true;

adjustTimeStep  true;

maxCo   0.5;

functions
{
    outputTime
    {
        type    writeTimeList;
        times
        (
            1.7e-5
            0.0001
            0.0002
        );
    }
}

// ************************************************************************* //
