/*--------------------------------*- C++ -*----------------------------------*\
| =========                 |                                                 |
| \\      /  F ield         | OpenFOAM: The Open Source CFD Toolbox           |
|  \\    /   O peration     | Version:  2.3.0                                 |
|   \\  /    A nd           | Web:      www.OpenFOAM.org                      |
|    \\/     M anipulation  |                                                 |
\*---------------------------------------------------------------------------*/
FoamFile
{
    version     2.0;
    format      ascii;
    class       dictionary;
    location    "system";
    object      fvSchemes;
}
// * * * * * * * * * * * * * * * * * * * * * * * * * * * * * * * * * * * * * //

fluxScheme      AUSM+up;

ddtSchemes
{
    default         Euler;
    timeIntegrator  RK2SSP;
}

gradSchemes
{
    default         cellMDLimited leastSquares 1.0;
}

divSchemes
{
    default         none;
    div(alphaRhoPhi.tnt,lambda.tnt) Riemann;
}

laplacianSchemes
{
    default         Gauss linear corrected;
}

interpolationSchemes
{
    default             cubic;
    reconstruct(alpha)  linearMUSCL vanAlbada;
    reconstruct(rho)    linearMUSCL vanAlbada;
    reconstruct(U)      linearMUSCL vanAlbada;
    reconstruct(e)      linearMUSCL vanAlbada;
    reconstruct(p)      linearMUSCL vanAlbada;
    reconstruct(speedOfSound) linearMUSCL vanAlbada;
}

snGradSchemes
{
    default         corrected;
}


// ************************************************************************* //
