/*--------------------------------*- C++ -*----------------------------------*\
  =========                 |
  \\      /  F ield         | OpenFOAM: The Open Source CFD Toolbox
   \\    /   O peration     | Website:  https://openfoam.org
    \\  /    A nd           | Version:  dev
     \\/     M anipulation  |
\*---------------------------------------------------------------------------*/
FoamFile
{
    version     2.0;
    format      ascii;
    class       volScalarField;
    location    "0";
    object      moment.1.populationBalance;
}
// * * * * * * * * * * * * * * * * * * * * * * * * * * * * * * * * * * * * * //

dimensions      [0 -2 0 0 0 0 0];

internalField   uniform 6.25e6;

boundaryField
{
    inlet
    {
        type            fixedValue;
        value           uniform 6.25e6;
    }

    outlet
    {
        type            zeroGradient;
    }

    bottom
    {
        type            symmetryPlane;
    }

    top
    {
        type            symmetryPlane;
    }

    obstacle
    {
        type            zeroGradient;
    }

    defaultFaces
    {
        type            empty;
    }
}


// ************************************************************************* //
