/*--------------------------------*- C++ -*----------------------------------*\
| =========                 |                                                 |
| \\      /  F ield         | OpenFOAM: The Open Source CFD Toolbox           |
|  \\    /   O peration     | Version:  2.3.0                                 |
|   \\  /    A nd           | Web:      www.OpenFOAM.org                      |
|    \\/     M anipulation  |                                                 |
\*---------------------------------------------------------------------------*/
FoamFile
{
    version     2.0;
    format      ascii;
    class       dictionary;
    object      blockMeshDict;
}
// * * * * * * * * * * * * * * * * * * * * * * * * * * * * * * * * * * * * * //

convertToMeters 1;

vertices
(
    ( -5.0 -5.0     0.0) // bottom
    (  5.0 -5.0     0.0)
    (  5.0  5.0     0.0)
    ( -5.0  5.0     0.0)
    ( -5.0 -5.0     5.0) // top
    (  5.0 -5.0     5.0)
    (  5.0  5.0     5.0)
    ( -5.0  5.0     5.0)
);

blocks
(
	 hex (0 1 2 3 4 5 6 7) (20 20 10) simpleGrading (1 1 1)
);

edges
(
);

boundary
(
    ground
    {
        type patch;
        faces
        (
            (0 1 2 3)
        );
    }
    outlet
    {
        type patch;
        faces
        (
            (0 1 5 4)
            (1 2 6 5)
            (3 2 6 7)
            (0 3 7 4)
            (4 5 6 7)
        );
    }

);

mergePatchPairs
(
);

// ************************************************************************* //
