/*--------------------------------*- C++ -*----------------------------------*\
| =========                 |                                                 |
| \\      /  F ield         | OpenFOAM: The Open Source CFD Toolbox           |
|  \\    /   O peration     | Version:  2.3.0                                 |
|   \\  /    A nd           | Web:      www.OpenFOAM.org                      |
|    \\/     M anipulation  |                                                 |
\*---------------------------------------------------------------------------*/
FoamFile
{
    version     2.0;
    format      ascii;
    class       dictionary;
    location    "system";
    object      controlDict;
}
// * * * * * * * * * * * * * * * * * * * * * * * * * * * * * * * * * * * * * //

application     blastFSIFoam;

startFrom       startTime;

startTime       0;

stopAt          endTime;

endTime         100e-6;

deltaT          1e-8;

writeControl    adjustableRunTime;

writeInterval   1e-6;

cycleWrite      0;

writeFormat     binary;

writePrecision  12;

writeCompression off;

timeFormat      general;

timePrecision   6;

runTimeModifiable true;

adjustTimeStep  yes;

maxCo           0.5;

maxDeltaT       1;


// ************************************************************************* //


functions
{
    solidProbes
    {
        type probes;
        region walls;
        probeLocations
        (
            (0.045 0.115 0)
        );
        fields (D U);
    }
}



