/*--------------------------------*- C++ -*----------------------------------*\
| =========                 |                                                 |
| \\      /  F ield         | OpenFOAM: The Open Source CFD Toolbox           |
|  \\    /   O peration     | Version:  2.3.0                                 |
|   \\  /    A nd           | Web:      www.OpenFOAM.org                      |
|    \\/     M anipulation  |                                                 |
\*---------------------------------------------------------------------------*/
FoamFile
{
    version     2.0;
    format      ascii;
    class       dictionary;
    location    "system";
    object      fvSolution;
}
// * * * * * * * * * * * * * * * * * * * * * * * * * * * * * * * * * * * * * //

solvers
{
    "(U|ea|eau)"
    {
        solver          PBiCGStab;
        preconditioner  DIC;
        tolerance       1e-08;
        relTol          0;
    }

    "(Su|Xi|b|ft|b|k|omega|epsilon)"
    {
        solver          PBiCGStab;
        preconditioner  DILU;
        tolerance       1e-08;
        relTol          0;
    }
}

PIMPLE
{
    nOuterCorrectors 3;
    nCorrectors     1;
    nNonOrthogonalCorrectors 0;
    outerCorrectorResidualControl
    {
        p
        {
            tolerance   1e-4;
            relTol      0;
        }
    }
}


// ************************************************************************* //
