/*--------------------------------*- C++ -*----------------------------------*\
| =========                 |                                                 |
| \\      /  F ield         | OpenFOAM: The Open Source CFD Toolbox           |
|  \\    /   O peration     | Version:  2.3.0                                 |
|   \\  /    A nd           | Web:      www.OpenFOAM.org                      |
|    \\/     M anipulation  |                                                 |
\*---------------------------------------------------------------------------*/
FoamFile
{
    version     2.0;
    format      ascii;
    class       dictionary;
    location    "system";
    object      controlDict;
}
// * * * * * * * * * * * * * * * * * * * * * * * * * * * * * * * * * * * * * //

application     blastFoam;

startFrom       latestTime;

startTime       0;

stopAt          endTime;

endTime         0.0025;

deltaT          1e-7;

writeControl    adjustableRunTime;

writeInterval   5e-5;

cycleWrite      0;

writeFormat     binary;

writePrecision  6;

writeCompression off;

timeFormat      general;

timePrecision   12;

runTimeModifiable true;

adjustTimeStep  yes;

maxCo           0.5;

maxDeltaT       1;

// * * * * * * * * * * * * * * * * * * * * * * * * * * * * * * * * * * * * * //

functions
{
    impulse
    {
        type                impulse;
        libs                ("libblastFunctionObjects.so");

        writeControl    writeTime;
        pRef            101298;
    }
    overpressure
    {
        type                overpressure;
        libs                ("libblastFunctionObjects.so");

        writeControl    writeTime;
        store           yes;
        pRef            101298;
    }
    maxPImpulse
    {
        type                fieldMax;
        libs                ("libblastFunctionObjects.so");

        writeControl    writeTime;
        fields
        (
            overpressure
            impulse
        );
    }


	// A few different ways to use run-time processing to get pressure-time histories below. Many other options exist: 
	 
	// generate and modify a "probes" file by using the "$ foamGet probes" command (see README.md), and load that file with an #includeFunc command, for example: 
	// #includeFunc "probes"; 
	

	// Automatically load and insert the contents of the probesAndSurfaces file here:
	// #include "probesAndSurfaces"; 
	
	
	// Another example of how to use probes -- uncomment to use:
		
			//     pressureProbes
			//     {
			//         type            probes;
			//         functionObjectLibs ("libsampling.so");
			//         writeControl    timeStep;
			//         writeInterval   1;
			//         probeLocations
			//         (
			// // probe locations in ( x y z ) format, unlimited number -- needs to be inside the domain!
			// ( 1.999 0.001 0.5)
			// // ( 0 0 0 ) // etc...
			//         );
			//         fields
			//         (
			//             p // fields you want at each probe location: p U T rho etc.
			//         );
			//     }
	
	
	
	
	
};

// ************************************************************************* //
