/*--------------------------------*- C++ -*----------------------------------*\
  =========                 |
  \\      /  F ield         | OpenFOAM: The Open Source CFD Toolbox
   \\    /   O peration     | Website:  https://openfoam.org
    \\  /    A nd           | Version:  dev
     \\/     M anipulation  |
\*---------------------------------------------------------------------------*/
FoamFile
{
    version     2.0;
    format      ascii;
    class       dictionary;
    object      dynamicMeshDict;
}
// * * * * * * * * * * * * * * * * * * * * * * * * * * * * * * * * * * * * * //

dynamicFvMesh   adaptiveFvMesh;
errorEstimator  densityGradient;

lowerRefineLevel    1e-2;
unrefineLevel       1e-2;
maxRefinement       4;

// How often to refine
refineInterval  1;

// Have slower than 2:1 refinement
nBufferLayers   1;

// Write the refinement level as a volScalarField
dumpLevel       true;
// ************************************************************************* //
