/*--------------------------------*- C++ -*----------------------------------*\
  =========                 |
  \\      /  F ield         | OpenFOAM: The Open Source CFD Toolbox
   \\    /   O peration     | Website:  https://openfoam.org
    \\  /    A nd           | Version:  dev
     \\/     M anipulation  |
\*---------------------------------------------------------------------------*/
FoamFile
{
    version     2.0;
    format      ascii;
    class       dictionary;
    object      dynamicMeshDict;
}
// * * * * * * * * * * * * * * * * * * * * * * * * * * * * * * * * * * * * * //

dynamicFvMesh movingAdaptiveFvMesh;
refiner polyRefiner;
errorEstimator fieldValue;
fieldName e;
balance no;
refineInterval 1;
nBufferLayers 1;
lowerRefineLevel 1;
unrefineLevel 1;
maxRefinement 2;
dumpLevel no;

motionSolver displacementLaplacian;

displacementLaplacianCoeffs
{
    diffusivity quadratic inverseDistance (left right);
}
