/*--------------------------------*- C++ -*----------------------------------*\
  | =========                 |                                                 |
  | \\      /  F ield         | OpenFOAM: The Open Source CFD Toolbox           |
  |  \\    /   O peration     | Version:  2.3.0                                 |
  |   \\  /    A nd           | Web:      www.OpenFOAM.org                      |
  |    \\/     M anipulation  |                                                 |
  \*---------------------------------------------------------------------------*/
FoamFile
{
  version     2.0;
  format      ascii;
  class       dictionary;
  location    "system";
  object      setFieldsDict;
}
// * * * * * * * * * * * * * * * * * * * * * * * * * * * * * * * * * * * * * //

defaultFieldValues
(
    volScalarFieldValue p               101298
    volScalarFieldValue alpha.particles 4.555e-4
    volScalarFieldValue rho.gas         1.13875
    volScalarFieldValue N2.gas          1
    volScalarFieldValue He.gas          0
);

regions
(
    boxToCell
    {
        box (0 -1 -1) (0.5 1 1);

        fieldValues
        (
            volScalarFieldValue p               1012980
            volScalarFieldValue rho.gas         1.622554108
            volScalarFieldValue alpha.particles 0
            volScalarFieldValue N2.gas          0
            volScalarFieldValue He.gas          1
        );
    }
 );

// ************************************************************************* //
