/*--------------------------------*- C++ -*----------------------------------*\
  =========                 |
  \\      /  F ield         | OpenFOAM: The Open Source CFD Toolbox
   \\    /   O peration     | Website:  https://openfoam.org
    \\  /    A nd           | Version:  7
     \\/     M anipulation  |
\*---------------------------------------------------------------------------*/
FoamFile
{
    version     2.0;
    format      binary;
    class       polyBoundaryMesh;
    location    "constant/polyMesh";
    object      boundary;
}
// * * * * * * * * * * * * * * * * * * * * * * * * * * * * * * * * * * * * * //

4
(
    ground
    {
        type            wall;
        inGroups        List<word> 1(wall);
        nFaces          100;
        startFace       2700;
    }
    midPlane1
    {
        type            symmetry;
        inGroups        List<word> 1(symmetry);
        nFaces          100;
        startFace       2800;
    }
    midPlane2
    {
        type            symmetry;
        inGroups        List<word> 1(symmetry);
        nFaces          100;
        startFace       2900;
    }
    outlet
    {
        type            patch;
        nFaces          300;
        startFace       3000;
    }
)

// ************************************************************************* //
