/*--------------------------------*- C++ -*----------------------------------*\
| =========                 |                                                 |
| \\      /  F ield         | OpenFOAM: The Open Source CFD Toolbox           |
|  \\    /   O peration     | Version:  2.3.0                                 |
|   \\  /    A nd           | Web:      www.OpenFOAM.org                      |
|    \\/     M anipulation  |                                                 |
\*---------------------------------------------------------------------------*/
FoamFile
{
    version     2.0;
    format      ascii;
    class       dictionary;
    location    "system";
    object      setFieldsDict;
}
// * * * * * * * * * * * * * * * * * * * * * * * * * * * * * * * * * * * * * //

fields (alpha.c4);
nBufferLayers 5;

defaultFieldValues
(
    volScalarFieldValue alpha.c4    0
);


regions
(
    cylinderToCell
    {
        p1 (-0.5 0.5 -1);
        p2 (-0.5 0.5  1);
        radius 0.025;
        backup
        {
            p1 (-0.5 0.5 -1);
            p2 (-0.5 0.5  1 );
            radius 0.1;
        }
        refineInternal yes;
        level 3;

        fieldValues
        (
            volScalarFieldValue alpha.c4    1
        );
    }
);


// ************************************************************************* //
