/*--------------------------------*- C++ -*----------------------------------*\
  =========                 |
  \\      /  F ield         | OpenFOAM: The Open Source CFD Toolbox
   \\    /   O peration     | Website:  https://openfoam.org
    \\  /    A nd           | Version:  9
     \\/     M anipulation  |
\*---------------------------------------------------------------------------*/
FoamFile
{
    format      binary;
    class       polyBoundaryMesh;
    location    "constant/fluid/polyMesh";
    object      boundary;
}
// * * * * * * * * * * * * * * * * * * * * * * * * * * * * * * * * * * * * * //

5
(
    fixedWalls
    {
        type            wall;
        inGroups        List<word> 1(wall);
        nFaces          100;
        startFace       19750;
    }
    fluid_to_walls
    {
        type            mappedMovingWall;
        nFaces          200;
        startFace       19850;
        sampleMode      nearestPatchFace;
        sampleRegion    walls;
        samplePatch     walls_to_fluid;
    }
    front
    {
        type            wedge;
        inGroups        List<word> 1(wedge);
        nFaces          10000;
        startFace       20050;
    }
    back
    {
        type            wedge;
        inGroups        List<word> 1(wedge);
        nFaces          10000;
        startFace       30050;
    }
    defaultFaces
    {
        type            empty;
        inGroups        List<word> 1(empty);
        nFaces          0;
        startFace       40050;
    }
)

// ************************************************************************* //
