/*--------------------------------*- C++ -*----------------------------------*\
  =========                 |
  \\      /  F ield         | OpenFOAM: The Open Source CFD Toolbox
   \\    /   O peration     | Website:  https://openfoam.org
    \\  /    A nd           | Version:  7
     \\/     M anipulation  |
\*---------------------------------------------------------------------------*/
FoamFile
{
    version     2.0;
    format      ascii;
    class       dictionary;
    location    "system";
    object      controlDict;
}
// * * * * * * * * * * * * * * * * * * * * * * * * * * * * * * * * * * * * * //

application     solids4Foam;

startFrom       latestTime;

startTime       0;

stopAt          endTime;

endTime         0.005;

deltaT          1e-7;

writeControl    adjustableRunTime;

runTimeModifiable yes;

writeInterval   1e-4;

purgeWrite      0;

writeFormat     ascii;

writePrecision  12;

writeCompression off;

timeFormat      general;

timePrecision   6;

maxCo           0.5;

adjustTimeStep  yes;

libs ("libblastSolids4Foam.so");
