/*--------------------------------*- C++ -*----------------------------------*\
| =========                 |                                                 |
| \\      /  F ield         | OpenFOAM: The Open Source CFD Toolbox           |
|  \\    /   O peration     | Version:  2.3.0                                 |
|   \\  /    A nd           | Web:      www.OpenFOAM.org                      |
|    \\/     M anipulation  |                                                 |
\*---------------------------------------------------------------------------*/
FoamFile
{
    version     2.0;
    format      ascii;
    class       dictionary;
    object      blockMeshDict;
}
// * * * * * * * * * * * * * * * * * * * * * * * * * * * * * * * * * * * * * //

convertToMeters 1.0;

vertices
(
    // this domain is slightly larger than the bounds of the geometry in the stl
    ( -2  -2  -2) // bottom
    (  2  -2  -2)
    (  2   2  -2)
    ( -2   2  -2)
    ( -2  -2   2) // top
    (  2  -2   2)
    (  2   2   2)
    ( -2   2   2)
);

blocks
(
	 hex (0 1 2 3 4 5 6 7) (16 16 16) simpleGrading (1 1 1)
);

edges
(
);

boundary
(

    walls
    {
        type wall;
        faces
        (
            (0 1 5 4)
        );
    }

    outlet
    {
        type patch;
        faces
        (
            (1 2 6 5)
            (3 2 6 7)
            (0 3 7 4)

            (0 1 2 3)
            (4 5 6 7)
        );
    }

);

mergePatchPairs
(
);

// ************************************************************************* //
