/*--------------------------------*- C++ -*----------------------------------*\
| =========                 |                                                 |
| \\      /  F ield         | OpenFOAM: The Open Source CFD Toolbox           |
|  \\    /   O peration     | Version:  2.3.0                                 |
|   \\  /    A nd           | Web:      www.OpenFOAM.org                      |
|    \\/     M anipulation  |                                                 |
\*---------------------------------------------------------------------------*/
FoamFile
{
    version     2.0;
    format      ascii;
    class       dictionary;
    location    "system";
    object      fvSchemes;
}
// * * * * * * * * * * * * * * * * * * * * * * * * * * * * * * * * * * * * * //

fluxScheme      Kurganov;

ddtSchemes
{
    default         Euler;
    timeIntegrator  RK2SSP;
}

gradSchemes
{
    default         cellMDLimited leastSquares 1.0;
}

divSchemes
{
    default                             none;
    div(rhoPhi,epsilon)                 Gauss upwind;
    div(rhoPhi,k)                       Gauss upwind;
    div(((rho*nuEff)*dev2(T(grad(U))))) Gauss linear;
    div(alphaRhoPhi.c4,lambda.c4)       Riemann;
}

laplacianSchemes
{
    default         Gauss linear corrected;
}

interpolationSchemes
{
    default             cubic;
    reconstruct(alpha)  vanAlbada;
    reconstruct(rho)    vanAlbada;
    reconstruct(U)      vanAlbadaV;
    reconstruct(e)      vanAlbada;
    reconstruct(p)      vanAlbada;
    reconstruct(speedOfSound) vanAlbada;

    reconstruct(lambda.c4) vanAlbada;
}

snGradSchemes
{
    default         corrected;
}


// ************************************************************************* //
