/*--------------------------------*- C++ -*----------------------------------*\
  =========                 |
  \\      /  F ield         | OpenFOAM: The Open Source CFD Toolbox
   \\    /   O peration     | Website:  https://openfoam.org
    \\  /    A nd           | Version:  7
     \\/     M anipulation  |
\*---------------------------------------------------------------------------*/
FoamFile
{
    version     2.0;
    format      ascii;
    class       pointScalarField;
    object      pointDisplacementx;
}
// * * * * * * * * * * * * * * * * * * * * * * * * * * * * * * * * * * * * * //

dimensions      [0 1 0 0 0 0 0];

internalField   uniform 0;

boundaryField
{
    air_to_plate
    {
        type            coupledPointMotion;
        value           $internalField;
    }
    plateEnd
    {
        type            coupledPointMotion;
        value           $internalField;
    }
    left
    {
        type            uniformFixedValue;
        uniformValue    0;
    }
    right
    {
        type            uniformFixedValue;
        uniformValue    0;
    }
    outlet
    {
        type            slip;
    }

    wedge
    {
        type            wedge;
    }
}

// ************************************************************************* //
