/*--------------------------------*- C++ -*----------------------------------*\
  =========                 |
  \\      /  F ield         | OpenFOAM: The Open Source CFD Toolbox
   \\    /   O peration     | Website:  https://openfoam.org
    \\  /    A nd           | Version:  dev
     \\/     M anipulation  |
\*---------------------------------------------------------------------------*/
FoamFile
{
    version     2.0;
    format      ascii;
    class       dictionary;
    object      dynamicMeshDict;
}
// * * * * * * * * * * * * * * * * * * * * * * * * * * * * * * * * * * * * * //

dynamicFvMesh   adaptiveFvMesh;
errorEstimator  densityGradient;

protectedPatches (walls);

// How often to refine
refineInterval  2;

loadBalance
{
    balance yes;
    balanceInterval 10;
    allowableImbalance 0.15;
    method scotch;
}

// Refine field in between lower..upper
lowerRefineLevel 0.1;

// If value < unrefineLevel unrefine
unrefineLevel   0.1;

// Have slower than 2:1 refinement
nBufferLayers   3;

// Refine cells only up to maxRefinement levels
maxRefinement   2;

// Stop refinement if maxCells reached
maxCells        10000000;

// Write the refinement level as a volScalarField
dumpLevel       true;
// ************************************************************************* //
