/*--------------------------------*- C++ -*----------------------------------*\
| =========                 |                                                 |
| \\      /  F ield         | OpenFOAM: The Open Source CFD Toolbox           |
|  \\    /   O peration     | Version:  2.3.0                                 |
|   \\  /    A nd           | Web:      www.OpenFOAM.org                      |
|    \\/     M anipulation  |                                                 |
\*---------------------------------------------------------------------------*/
FoamFile
{
    version     2.0;
    format      ascii;
    class       dictionary;
    location    "system";
    object      fvSchemes;
}
// * * * * * * * * * * * * * * * * * * * * * * * * * * * * * * * * * * * * * //

fluxScheme      Tadmor;

ddtSchemes
{
    default         Euler;
    timeIntegrator  RK2SSP 3;
}

gradSchemes
{
    default         cellMDLimited leastSquares 1;
    grad(cellDisplacement) Gauss linear;
}

divSchemes
{
    default         none;
    div(alphaRhoPhi.c4,lambda.c4) Riemann;
}

laplacianSchemes
{
    default         Gauss linear corrected;
    laplacian(diffusivity,cellDisplacement) Gauss linear uncorrected;
}

interpolationSchemes
{
    default             linear;
    reconstruct(alpha)  quadraticMUSCL Minmod;
    reconstruct(rho)    quadraticMUSCL Minmod;
    reconstruct(U)      quadraticMUSCL Minmod;
    reconstruct(e)      quadraticMUSCL Minmod;
    reconstruct(p)      quadraticMUSCL Minmod;
    reconstruct(speedOfSound) quadraticMUSCL Minmod;
}

snGradSchemes
{
    default         corrected;
}


// ************************************************************************* //
