FoamFile
{
    version     2.0;
    format      ascii;
    class       dictionary;
    object      blockMeshDict;
}
// * * * * * * * * * * * * * * * * * * * * * * * * * * * * * * * * * * * * * //

scale   1.;

x0 -3.;
x1 -0.05;
x2 0.05;
x3 3.;

z0 0.;
z1 1.;
z2 4.;

w 0.3;

vertices
(
    ($x0  $w  $z0)         // 0
    ($x1  $w  $z0)         // 1
    ($x2  $w  $z0)         // 2
    ($x3  $w  $z0)         // 3
    ($x0  $w  $z1)         // 4
    ($x1  $w  $z1)         // 5
    ($x2  $w  $z1)         // 6
    ($x3  $w  $z1)         // 7
    ($x0  $w  $z2)         // 8
    ($x1  $w  $z2)         // 9
    ($x2  $w  $z2)         // 10
    ($x3  $w  $z2)         // 11

    ($x0  0.0 $z0)         // 12
    ($x1  0.0 $z0)         // 13
    ($x2  0.0 $z0)         // 14
    ($x3  0.0 $z0)         // 15
    ($x0  0.0 $z1)         // 16
    ($x1  0.0 $z1)         // 17
    ($x2  0.0 $z1)         // 18
    ($x3  0.0 $z1)         // 19
    ($x0  0.0 $z2)         // 20
    ($x1  0.0 $z2)         // 21
    ($x2  0.0 $z2)         // 22
    ($x3  0.0 $z2)         // 23
);

// Grading
h1 118;
h2 4;
v1 40;
v2 120;

blocks
(
    hex (   0   1   5   4   12  13  17  16  ) air
    ($h1 $v1 1 )
    simpleGrading (1 1 1)

    hex (   2   3   7   6   14  15  19  18  ) air
    ($h1 $v1 1)
    simpleGrading (1 1 1)

    hex (   4   5   9   8   16  17  21  20  ) air
    ($h1 $v2 1)
    simpleGrading (1 1 1)

    hex (   5   6   10  9   17  18  22  21  ) air
    ($h2 $v2 1)
    simpleGrading (1 1 1)

    hex (   6   7   11  10  18  19  23  22  ) air
    ($h1 $v2 1 )
    simpleGrading (1 1 1)

    hex (   1   2   6   5   13  14  18  17  ) flap
    ($h2 $v1 1)
    simpleGrading (1 1 1)
);

edges
(
);

boundary
(
    outlet
    {
        type patch;
        faces
        (
            (  0   4   16  12  )
            (  4   8   20  16  )
            (   3   7   19  15  )
            (   7   11  23  19  )
            (   8   9   21  20  )
            (   9   10  22  21  )
            (   10  11  23  22  )
        );
    }
    ground
    {
        type wall;
        faces
        (
            (   0   1   13  12  )
            (   2   3   15  14  )
        );
    }
    flapBase
    {
        type wall;
        faces
        (
            (   1   2   14  13  )
        );
    }
);

// ************************************************************************* //
