FoamFile
{
    version     2.0;
    format      ascii;
    class       dictionary;
    location    "system";
    object      controlDict;
}
// * * * * * * * * * * * * * * * * * * * * * * * * * * * * * * * * * * * * * //

application     blastFSIFoam;    // OpenFOAM v1806, OpenFOAM 6, or newer

startFrom       startTime;

startTime       0;

stopAt          endTime;

endTime         5e-3;

deltaT          1e-7;

writeControl    adjustableRunTime;

runTimeModifiable yes;

writeInterval   1e-5;

purgeWrite      0;

writeFormat     ascii;

writePrecision  6;

writeCompression off;

timeFormat      general;

timePrecision   6;

maxCo 0.5;

adjustTimeStep yes;

functions
{}

DebugSwitches
{
    pointMesh 1;
    meshObject 1;
    polyMesh 1;
}
