/*--------------------------------*- C++ -*----------------------------------*\
| =========                 |                                                 |
| \\      /  F ield         | OpenFOAM: The Open Source CFD Toolbox           |
|  \\    /   O peration     | Version:  2.3.0                                 |
|   \\  /    A nd           | Web:      www.OpenFOAM.org                      |
|    \\/     M anipulation  |                                                 |
\*---------------------------------------------------------------------------*/
FoamFile
{
    version     2.0;
    format      ascii;
    class       dictionary;
    location    "constant";
    object      MieGruneisenEOSProperties;
}
// * * * * * * * * * * * * * * * * * * * * * * * * * * * * * * * * * * * * * //

phases (particles gas);

particles
{
    phaseType       granular;
    diameterModel   reacting;
    reactingDiameterCoeffs
    {
        d 1e-3;
        reactionRate pressureBased;
        pScale      1e-6;
        pExponent   0.9;
        pCoeff      0.009;
    }

    alphaMax    0.63;
    alphaMinFriction 0.5;

    type basic;
    thermoType
    {
        equationOfState rhoConst;
        thermo eConst;
        transport constIso;
    }
    specie
    {
        molWeight  100.0;
    }
    equationOfState
    {
        rho0         1600;
    }
    transport
    {
        kappa       0.36;
    }
    thermodynamics
    {
        type        eConst;
        Cv          745;           // Heat capacity
        Hf          0;
    }

    kineticTheoryCoeffs
    {
        e           0.999;
    }
    residualAlpha 1e-6;
    residualRho 0;


}

gas
{
    phaseType       fluid;

    diameterModel constant;
    constantDiameterCoeffs
    {
        d           0;
    }

    type            multicomponent;
    species         (ignitor air products);
    calculateDensity yes;
    thermoType
    {
        transport   const;
        thermo      eConst;
        equationOfState AbelNobel;
    }

    ignitor
    {
        equationOfState
        {
            b               0.99e-3;
        }
        specie
        {
            molWeight       22.935;
        }
        transport
        {
            mu              1.81e-5;
            Pr              0.7;
        }
        thermodynamics
        {
            Cv          1450;
            Hf          0;
        }
    }
    products
    {
        equationOfState
        {
            b           0.99e-3;            // Heat capactiy ratio
        }
        specie
        {
            molWeight       21.0;
        }
        transport
        {
            mu              1.81e-5;
            Pr              0.7;
        }
        thermodynamics
        {
            Cv          2100;
            Hf          1.5e6;
        }
    }
    air
    {
        equationOfState
        {
            b           1.02e-3;            // Heat capactiy ratio
        }
        specie
        {
            molWeight       28.6689;
        }
        transport
        {
            mu              1.81e-5;
            Pr              0.7;
        }
        thermodynamics
        {
            Cv          1450;
            Hf          0;
        }
    }
    residualRho     1e-6;
    residualAlpha   1e-6;
}

blending
{
    default
    {
        type none;
        continuousPhase gas;
    }
}

interfacialPressure
(
    (gas and particles)
    {
        type single;
        phase gas;
    }
);

interfacialVelocity
(
    (gas and particles)
    {
        type single;
        phase particles;
    }
);

massTransfer
(
    (particles in gas)
    {
        type reactingParticle;
        productSpecies
        (
            (products 1.0)
        );
    }
);

aspectRatio
(
);

solveDragODE off;
dragODECoeffs
{
    solver seulex;
    relTol 1e-3;
}

drag
(
    (particles in gas)
    {
        type GidaspowErgunWenYu;
        residualRe 1e-3;
        swarmCorrection
        {
            type none;
        }
    }
);

virtualMass
(
);

heatTransfer
(
    (particles in gas)
    {
        type RanzMarshall;
        NuModel Gunn;
    }
);

lift
(
);

wallLubrication
(
);

turbulentDispersion
(
);

kineticTheory
{
    alphaMax 0.63;
    residualAlpha 1e-8;
    alphaMinFriction 0.5;

    radialModel SinclairJackson;
    viscosityModel none;
    conductivityModel Syamlal;
    granularPressureModel Lun;
    frictionalStressModel JohnsonJackson;

    JohnsonJacksonCoeffs
    {
        alphaMinFriction        0.5;
        Fr                      0.05;
        eta                     2;
        p                       5;
        phi                     28.5;
        alphaDeltaMin           0.05;
    }
}

// ************************************************************************* //
