/*--------------------------------*- C++ -*----------------------------------*\
  =========                 |
  \\      /  F ield         | OpenFOAM: The Open Source CFD Toolbox
   \\    /   O peration     | Website:  https://openfoam.org
    \\  /    A nd           | Version:  7
     \\/     M anipulation  |
\*---------------------------------------------------------------------------*/
FoamFile
{
    version     2.0;
    format      ascii;
    class       dictionary;
    object      kinematicCloudProperties;
}
// * * * * * * * * * * * * * * * * * * * * * * * * * * * * * * * * * * * * * //

solution
{
    active          true;
    transient       true;
    coupled         true;
    cellValueSourceCorrection off;

    sourceTerms
    {
        schemes
        {
            U               semiImplicit 1;
        }
    }

    integrationSchemes
    {
        U               Euler;
    }

    interpolationSchemes
    {
        rho             cell;
        U               cellPoint;
        thermo:mu       cell;
    }
}

constantProperties
{
    rho0            1;
}

subModels
{
    particleForces
    {
        instantDrag;
    }

    injectionModels
    {
        model1
        {
            type             patchInjection;
            patchName        inlet;
            parcelBasisType  mass; // fixed;

            SOI              0;    // Start time of injection
            duration         0.1;

            U0               (200 0 0);
            massTotal        1;
            parcelsPerSecond 1e4;
            flowRateProfile  constant 1;

//          nParticle        100; // Required for fixed parcelBasisType
            sizeDistribution
            {
                type         fixedValue;
                fixedValueDistribution
                {
                    value 1e-3;
                }
            }
        }
    }

    dispersionModel none;

    patchInteractionModel localInteraction;

    localInteractionCoeffs
    {
        patches
        (
            outlet
            {
                type escape;
            }
            inlet
            {
                type none;
            }

            aerofoil
            {
                type rebound;  // For Un = normal speed; Ut = tangential speed
                e    1;        // e = (Un_reflected / Un_incident)
                mu   0;        // mu = [1 - (Ut_reflected / Ut_incident)]
            }
        );
    }

    stochasticCollisionModel none;

    surfaceFilmModel none;

    collisionModel none;
}

cloudFunctions
{}

// ************************************************************************* //
