/*--------------------------------*- C++ -*----------------------------------*\
| =========                 |                                                 |
| \\      /  F ield         | OpenFOAM: The Open Source CFD Toolbox           |
|  \\    /   O peration     | Version:  2.3.0                                 |
|   \\  /    A nd           | Web:      www.OpenFOAM.org                      |
|    \\/     M anipulation  |                                                 |
\*---------------------------------------------------------------------------*/
FoamFile
{
    version     2.0;
    format      ascii;
    class       dictionary;
    location    "system";
    object      fvSchemes;
}
// * * * * * * * * * * * * * * * * * * * * * * * * * * * * * * * * * * * * * //

fluxSchemes
{
    gas
    {
        fluxScheme  HLLC;
    }
    particles
    {
        fluxScheme          AUSM+Up;
        alphaMinFriction    0.5;
        alphaMax            0.63;
    }
}

ddtSchemes
{
    default         Euler;
    timeIntegrator  RK2SSP;
}

gradSchemes
{
    default         cellMDLimited leastSquares 1.0;
}

divSchemes
{
    default         none;
    div(Yi)         Riemann;
    div(phi.particles,d.particles) Riemann particles;
    div(alphaRhoPhi.particles,d.particles) Riemann particles;
    div((((alpha.gas*rho.gas)*nuEff.gas)*dev2(T(grad(U.gas))))) Gauss linear;
    div(sigma.particles) Gauss linear;
}

laplacianSchemes
{
    default         Gauss linear corrected;
}

interpolationSchemes
{
    default             cubic;
    reconstruct(alpha)  quadraticMUSCL vanAlbada;
    reconstruct(rho)    quadraticMUSCL vanAlbada;
    reconstruct(U)      quadraticMUSCL vanAlbada;
    reconstruct(e)      quadraticMUSCL vanAlbada;
    reconstruct(p)      quadraticMUSCL vanAlbada;
    reconstruct(speedOfSound) quadraticMUSCL vanAlbada;
    "reconstruct\(Y.*\)" quadraticMUSCL vanAlbada;
    reconstruct(Theta)  quadraticMUSCL vanAlbada;
}

snGradSchemes
{
    default         corrected;
}


// ************************************************************************* //
