/*--------------------------------*- C++ -*----------------------------------*\
| =========                 |                                                 |
| \\      /  F ield         | foam-extend: Open Source CFD                    |
|  \\    /   O peration     | Version:     4.1                                |
|   \\  /    A nd           | Web:         http://www.foam-extend.org         |
|    \\/     M anipulation  |                                                 |
\*---------------------------------------------------------------------------*/
FoamFile
{
    version     2.0;
    format      ascii;
    class       dictionary;
    location    "constant/polyMesh";
    object      blockMeshDict;
}
// * * * * * * * * * * * * * * * * * * * * * * * * * * * * * * * * * * * * * //

convertToMeters 1;

vertices
(
    (0 -0.5 -0.5)
    (10 -0.5 -0.5)
    (10 0.5 -0.5)
    (0 0.5 -0.5)
    (0 -0.5 0.5)
    (10 -0.5 0.5)
    (10 0.5 0.5)
    (0 0.5 0.5)
);

blocks
(
    hex (0 1 2 3 4 5 6 7) (100 10 1) simpleGrading (1 1 1)
);

edges
();

patches
(
    patch wall
    (
        (0 3 7 4)
    )
    patch bottom
    (
        (0 1 5 4)
    )
    patch tip
    (
        (1 2 6 5)
    )
    patch top
    (
        (2 3 7 6)
    )
);

mergePatchPairs
(
);


// ************************************************************************* //
