/*--------------------------------*- C++ -*----------------------------------*\
| =========                 |                                                 |
| \\      /  F ield         | foam-extend: Open Source CFD                    |
|  \\    /   O peration     | Version:     4.1                                |
|   \\  /    A nd           | Web:         http://www.foam-extend.org         |
|    \\/     M anipulation  |                                                 |
\*---------------------------------------------------------------------------*/
FoamFile
{
    version     2.0;
    format      ascii;
    class       dictionary;
    location    "system";
    object      fvSchemes;
}
// * * * * * * * * * * * * * * * * * * * * * * * * * * * * * * * * * * * * * //

d2dt2Schemes
{
    default                 Euler;
}

ddtSchemes
{
    default                 Euler;
    timeIntegrator          RK2SSP 3;
}

gradSchemes
{
    default                 leastSquares;
}

divSchemes
{
    default                 none;
    div(sigma)              Gauss linear;
}

laplacianSchemes
{
    default                 none;
    laplacian(DU,U)         Gauss linear corrected;
}

snGradSchemes
{
    default                 none;
    snGrad(D)               corrected;
}

interpolationSchemes
{
    default                 linear;
    "reconstruct\(.*\)"     upwindMUSCL vanLeer;
}


// ************************************************************************* //
