/*--------------------------------*- C++ -*----------------------------------*\
| =========                 |                                                 |
| \\      /  F ield         | OpenFOAM: The Open Source CFD Toolbox           |
|  \\    /   O peration     | Version:  dev                                   |
|   \\  /    A nd           | Web:      www.OpenFOAM.org                      |
|    \\/     M anipulation  |                                                 |
\*---------------------------------------------------------------------------*/
FoamFile
{
    version     2.0;
    format      ascii;
    class       dictionary;
    location    "system";
    object      controlDict;
}
// * * * * * * * * * * * * * * * * * * * * * * * * * * * * * * * * * * * * * //

application     blastPbeTransportFoam;

startFrom       startTime;

startTime       0;

stopAt          endTime;

endTime         0.005;

deltaT          1e-7;

writeControl    adjustableRunTime;

writeInterval   1e-4;

purgeWrite      0;

writeFormat     ascii;

writePrecision  8;

writeCompression off;

timeFormat      general;

timePrecision   6;

runTimeModifiable true;

adjustTimeStep  true;

maxCo   0.1;

functions
{
    Ma
    {
        type            singlePhaseMachNo;
        executeControl  writeTime;
        writeControl    writeTime;
    }
}


// ************************************************************************* //
