 /*--------------------------------*- C++ -*----------------------------------*\
  =========                 |
  \\      /  F ield         | OpenFOAM: The Open Source CFD Toolbox
   \\    /   O peration     | Website:  https://openfoam.org
    \\  /    A nd           | Version:  dev
     \\/     M anipulation  |
\*---------------------------------------------------------------------------*/
FoamFile
{
    version     2.0;
    format      ascii;
    class       dictionary;
    location    "constant";
    object      regionProperties;
}
// * * * * * * * * * * * * * * * * * * * * * * * * * * * * * * * * * * * * * //

regions
(
    fluid       (air)
    solid       (flap)
);

interfaces
(
    air
    {
        air_to_flap
        {
            sampleRegion    flap;
            samplePatch     flap_to_air;
            mappingType     AMI;
            interpolationMethod faceAreaWeight;
        }
    }
    flap
    {
        flap_to_air
        {
            sampleRegion    air;
            samplePatch     air_to_flap;
            displacementField D;
        }
    }
);

// ************************************************************************* //
