 /*--------------------------------*- C++ -*----------------------------------*\
  =========                 |
  \\      /  F ield         | OpenFOAM: The Open Source CFD Toolbox
   \\    /   O peration     | Website:  https://openfoam.org
    \\  /    A nd           | Version:  dev
     \\/     M anipulation  |
\*---------------------------------------------------------------------------*/
FoamFile
{
    version     2.0;
    format      ascii;
    class       dictionary;
    location    "constant";
    object      regionProperties;
}
// * * * * * * * * * * * * * * * * * * * * * * * * * * * * * * * * * * * * * //

regions
(
    fluid       (air)
    solid       (building)
);

interfaces
(
    air
    {
        air_to_building
        {
            sampleRegion    building;
            samplePatch     building_to_air;
            mappingType     AMI;
            interpolationMethod faceAreaWeight;
        }
    }
    building
    {
        building_to_air
        {
            sampleRegion    air;
            samplePatch     air_to_building;
            displacementField pointD;
        }
    }
);


// ************************************************************************* //
