/*--------------------------------*- C++ -*----------------------------------*\
  =========                 |
  \\      /  F ield         | OpenFOAM: The Open Source CFD Toolbox
   \\    /   O peration     | Website:  https://openfoam.org
    \\  /    A nd           | Version:  dev
     \\/     M anipulation  |
\*---------------------------------------------------------------------------*/
FoamFile
{
    version     2.0;
    format      ascii;
    class       dictionary;
    object      dynamicMeshDict;
}
// * * * * * * * * * * * * * * * * * * * * * * * * * * * * * * * * * * * * * //

dynamicFvMesh   adaptiveFvMesh;

// How often to refine
refineInterval  1;
beginUnrefine 1e-6;

// Field to be refinement on
errorEstimator  multicomponent;
estimators (density volumeFraction);

density
{
    errorEstimator densityGradient;
}
volumeFraction
{
    errorEstimator delta;
    deltaField alpha.aluminum;
}

// Refine field in between lower..upper
lowerRefineLevel 1e-2;

// If value < unrefineLevel unrefine
unrefineLevel   1e-2;

// Have slower than 2:1 refinement
nBufferLayers   2;

// Refine cells only up to maxRefinement levels
maxRefinement   5;

// Write the refinement level as a volScalarField
dumpLevel       true;
// ************************************************************************* //
