/*--------------------------------*- C++ -*----------------------------------*\
  =========                 |
  \\      /  F ield         | OpenFOAM: The Open Source CFD Toolbox
   \\    /   O peration     | Website:  https://openfoam.org
    \\  /    A nd           | Version:  7
     \\/     M anipulation  |
\*---------------------------------------------------------------------------*/
FoamFile
{
    version     2.0;
    format      ascii;
    class       volScalarField;
    object      rho;
}
// * * * * * * * * * * * * * * * * * * * * * * * * * * * * * * * * * * * * * //

dimensions      [1 -3 0 0 0 0 0];

internalField   uniform 1.1664;

boundaryField
{
    outlet
    {
        type            freestream;
        freestreamValue uniform 1.1664;
        value uniform 1.1664;
    }

    freestream
    {
        type            zeroGradient;
    }

    wall
    {
        type            zeroGradient;
    }

    #includeEtc "caseDicts/setConstraintTypes"
}

// ************************************************************************* //
