/*--------------------------------*- C++ -*----------------------------------*\
  =========                 |
  \\      /  F ield         | OpenFOAM: The Open Source CFD Toolbox
   \\    /   O peration     | Website:  https://openfoam.org
    \\  /    A nd           | Version:  dev
     \\/     M anipulation  |
\*---------------------------------------------------------------------------*/
FoamFile
{
    version     2.0;
    format      ascii;
    class       dictionary;
    object      dynamicMeshDict;
}
// * * * * * * * * * * * * * * * * * * * * * * * * * * * * * * * * * * * * * //

dynamicFvMesh   staticFvMesh;

errorEstimator scaledDelta;      // Model used to estimate error
scaledDeltaField D;
minValue 1e-6;

balance no;

// How often to refine
refineInterval  3;

// Refine field in between lower..upper (varies based on errorEstimator)
lowerRefineLevel 0.01;

// If value < unrefineLevel unrefine
unrefineLevel   0.01;

// Number of cells refined around high error cells
nBufferLayers   2;

// Refine cells only up to maxRefinement levels
maxRefinement   2;

// Write the refinement level as a volScalarField
dumpLevel       true;

// ************************************************************************* //
