/*--------------------------------*- C++ -*----------------------------------*\
| =========                 |                                                 |
| \\      /  F ield         | OpenFOAM: The Open Source CFD Toolbox           |
|  \\    /   O peration     | Version:  2.3.0                                 |
|   \\  /    A nd           | Web:      www.OpenFOAM.org                      |
|    \\/     M anipulation  |                                                 |
\*---------------------------------------------------------------------------*/
FoamFile
{
    version     2.0;
    format      ascii;
    class       dictionary;
    location    "system";
    object      controlDict;
}
// * * * * * * * * * * * * * * * * * * * * * * * * * * * * * * * * * * * * * //

application     blastFoam;

startFrom       startTime;

startTime       0;

stopAt          endTime;

endTime         0.0025;

deltaT          1e-7;

writeControl    adjustableRunTime;

writeInterval   5e-5;

cycleWrite      0;

writeFormat     binary;

writePrecision  6;

writeCompression off;

timeFormat      general;

timePrecision   12;

runTimeModifiable true;

adjustTimeStep  yes;

maxCo           0.5;

maxDeltaT       1;

// * * * * * * * * * * * * * * * * * * * * * * * * * * * * * * * * * * * * * //

functions
{
    impulse
    {
        type            impulse;
        writeControl    writeTime;
        pRef            101298;
    }
    overpressure
    {
        type            overpressure;
        writeControl    writeTime;
        store           yes;
        pRef            101298;
    }
    maxPImpulse
    {
        type            fieldMax;
        writeControl    writeTime;
        fields
        (
            overpressure
            impulse
        );
    }
};

// ************************************************************************* //
