/*--------------------------------*- C++ -*----------------------------------*\
| =========                 |                                                 |
| \\      /  F ield         | foam-extend: Open Source CFD                    |
|  \\    /   O peration     | Version:     4.1                                |
|   \\  /    A nd           | Web:         http://www.foam-extend.org         |
|    \\/     M anipulation  |                                                 |
\*---------------------------------------------------------------------------*/
FoamFile
{
    version     2.0;
    format      ascii;
    class       dictionary;
    location    "system";
    object      fvSolution;
}
// * * * * * * * * * * * * * * * * * * * * * * * * * * * * * * * * * * * * * //

solvers
{

    "T|D|DD"
    {
      solver                GAMG;
      tolerance             1e-10;
      relTol                0.1;
      minIter               1;
      maxIter               1000;
      smoother              GaussSeidel;
      cacheAgglomeration    true;
      nCellsInCoarsestLevel 20;
      agglomerator          faceAreaPair;
      mergeLevels           1;
    }

//     "D|DD"
//     {
//       tolerance             1e-10;
//       relTol                0.1;
//       minIter               1;
//       solver                PBiCGStab;
//       preconditioner        DIC;
//     }
}

relaxationFactors
{
    equations
    {
        DD              0.9;
        D               0.9;
    }
    fields
    {
        DD              0.5;
        D               0.5;
    }
}


// ************************************************************************* //
