 /*--------------------------------*- C++ -*----------------------------------*\
  =========                 |
  \\      /  F ield         | OpenFOAM: The Open Source CFD Toolbox
   \\    /   O peration     | Website:  https://openfoam.org
    \\  /    A nd           | Version:  dev
     \\/     M anipulation  |
\*---------------------------------------------------------------------------*/
FoamFile
{
    version     2.0;
    format      ascii;
    class       dictionary;
    location    "constant";
    object      regionProperties;
}
// * * * * * * * * * * * * * * * * * * * * * * * * * * * * * * * * * * * * * //

regions
(
    fluid       (fluid)
    solid       (walls)
);

interfaces
(
    fluid
    {
        fluid_to_walls
        {
            sampleRegion walls;
            samplePatch  walls_to_fluid;
            mappingType  AMI;
            interpolationMethod faceAreaWeight;
        }
    }
    walls
    {
        walls_to_fluid
        {
            sampleRegion fluid;
            samplePatch  fluid_to_walls;
            displacementField pointD;
        }
    }
);

// ************************************************************************* //
