/*--------------------------------*- C++ -*----------------------------------*\
| =========                 |                                                 |
| \\      /  F ield         | OpenFOAM: The Open Source CFD Toolbox           |
|  \\    /   O peration     | Version:  2.3.0                                 |
|   \\  /    A nd           | Web:      www.OpenFOAM.org                      |
|    \\/     M anipulation  |                                                 |
\*---------------------------------------------------------------------------*/
FoamFile
{
    version     2.0;
    format      ascii;
    class       dictionary;
    object      blockMeshDict;
}
// * * * * * * * * * * * * * * * * * * * * * * * * * * * * * * * * * * * * * //

convertToMeters 1;

vertices
(
    (0     -1     -1)
    (5     -1     -1)
    (5      1     -1)
    (0      1     -1)
    (0     -1     1)
    (5     -1     1)
    (5      1     1)
    (0      1     1)
);

blocks
(
	 hex (0 1 2 3 4 5 6 7) (50 1 20) simpleGrading (1 1 1)
);

edges
(
);

boundary
(
    walls
    {
        type wall;
        faces
        (
            (0 1 2 3)
            (4 5 6 7)
//             (0 1 5 4)
            (1 2 6 5)
//             (2 3 7 6)
            (3 0 4 7)
        );
    }

);

mergePatchPairs
(
);

// ************************************************************************* //
