/*--------------------------------*- C++ -*----------------------------------*\
  | =========                 |                                                 |
  | \\      /  F ield         | OpenFOAM: The Open Source CFD Toolbox           |
  |  \\    /   O peration     | Version:  2.3.0                                 |
  |   \\  /    A nd           | Web:      www.OpenFOAM.org                      |
  |    \\/     M anipulation  |                                                 |
  \*---------------------------------------------------------------------------*/
FoamFile
{
  version     2.0;
  format      ascii;
  class       dictionary;
  location    "system";
  object      setFieldsDict;
}
// * * * * * * * * * * * * * * * * * * * * * * * * * * * * * * * * * * * * * //

defaultFieldValues
(
    volScalarFieldValue rho 1
    volScalarFieldValue p 1e-5
);
dr 0.001;
regions
(
    sphereToCell
    {
        radius $dr;
        centre (0 0 0);

        fieldValues
        (
            volScalarFieldValue p #calc "0.0818511136/pow3($dr)"
        );
    }
);

// ************************************************************************* //
