/*--------------------------------*- C++ -*----------------------------------*\
  =========                 |
  \\      /  F ield         | OpenFOAM: The Open Source CFD Toolbox
   \\    /   O peration     | Website:  https://openfoam.org
    \\  /    A nd           | Version:  dev
     \\/     M anipulation  |
\*---------------------------------------------------------------------------*/
FoamFile
{
    version     2.0;
    format      ascii;
    class       dictionary;
    object      dynamicMeshDict;
}
// * * * * * * * * * * * * * * * * * * * * * * * * * * * * * * * * * * * * * //

dynamicFvMesh   adaptiveFvMesh;
errorEstimator  fieldValue;

errorEstimator fieldValue;
fieldName cellType;
lowerRefineLevel 0.5;
unrefineLevel   0.5;

upperRefineLevel 1.5;
upperUnrefineLevel 1.5;


// How often to refine
refineInterval  1;

// Have slower than 2:1 refinement
nBufferLayers   1;

// Refine cells only up to maxRefinement levels
maxRefinement   0;

// Write the refinement level as a volScalarField
dumpLevel       true;
// ************************************************************************* //
