/*--------------------------------*- C++ -*----------------------------------*\
| =========                 |                                                 |
| \\      /  F ield         | OpenFOAM: The Open Source CFD Toolbox           |
|  \\    /   O peration     | Version:  2.3.0                                 |
|   \\  /    A nd           | Web:      www.OpenFOAM.org                      |
|    \\/     M anipulation  |                                                 |
\*---------------------------------------------------------------------------*/
FoamFile
{
    version     2.0;
    format      ascii;
    class       dictionary;
    location    "constant";
    object      immersedBoundaryProperties;
}
// * * * * * * * * * * * * * * * * * * * * * * * * * * * * * * * * * * * * * //
rotation (0.70711 0.70711 0 -0.70711 0.70711 0 0 0 1);

objects
{
    //2d shapes
    ellipse
    {
        type moving;
        shape ellipse;
        radius 2;
        centreOfMass (-6 -6 0);
        mass 2;
        write yes;
//         velocity (1 0 0);
        orientation $rotation;
        a 1;
        b 3;
        dx 0.1;

        solver
        {
            type Euler;
        }
        motionConstraints
        {
            plane
            {
                type plane;
                normal (0 0 1);
            }
        }
    }
    circle
    {
        type moving;
        shape circle;
        radius 2;
        centreOfMass (0 -7 0);
//         velocity (10 0 0);
        mass 1;
        dx 0.1;

        solver
        {
            type Euler;
        }
        motionConstraints
        {
            plane
            {
                type plane;
                normal (0 0 1);
            }
            orientation
            {
                type orientation;
            }
        }
    }
//     triangle
//     {
//         type moving;
//         shape triangle;
//         p1 (1 -2 0);
//         p2 (5 -2 0);
//         p3 (2.5 3.0 0);
//
//         orientation (-0.959886 -0.280392 0 0.280392 -0.959886 0 0 0 1);
//
//         dx 0.1;
//         writeStl yes;
//
//         mass 1;
//
//         solver
//         {
//             type Newmark;
//         }
//         motionConstraints
//         {
//             plane
//             {
//                 type plane;
//                 normal (0 0 1);
//             }
//         }
//     }

//     rectangle
//     {
//         type moving;
//         shape rectangle;
//         L 5.0;
//         H 3.0;
//         centreOfMass (-5.0 -8 0.0);
//         velocity (2 0 0);
// //         orientation (-0.959886 -0.280392 0 0.280392 -0.959886 0 0 0 1);
//
//         dx 0.1;
//         writeStl yes;
//
//         mass 5;
//
//         solver
//         {
//             type Euler;
//         }
//         motionConstraints
//         {
//             plane
//             {
//                 type plane;
//                 normal (0 0 1);
//             }
//         }
//     }

    //3d shapes
//     ellipsoid
//     {
//         type moving;
//         shape ellipsoid;
//         centreOfMass (0 0 0);
//         mass 1;
//         velocity (0 0 0);
//         orientation $rotation;
//         a 0.2;
//         b 0.1;
//         c 0.3;
//         writeStl yes;
//         dx 0.05;
//
//         solver
//         {
//             type Euler;
//         }
//     }
//     box
//     {
//         type moving;
//         shape box;
//         centreOfMass (0.2 0.5 0);
//         L (0.2 0.4 0.3);
//         orientation $rotation;
//         mass 1;
//         writeStl yes;
//         dx 0.05;
//
//         solver
//         {
//             type Euler;
//         }
//     }
//     sphere
//     {
//         type moving;
//         shape sphere;
//         radius 0.3;
//         centreOfMass (0 -0.7 -0.5);
//         orientation $rotation;
//         writeStl yes;
//         mass 1;
//         dx 0.05;
//
//         solver
//         {
//             type Euler;
//         }
//     }
}
collisionModel
{
    type pairCollision;
    pairModel pairInelastic;
    pairInelasticCoeffs
    {
        alpha   0.12;
        b       1.5;
        mu      0.52;
        nu      0.33;
        E       6e8;
        cohesionEnergyDensity 0;
    }
    wallModel wallInelastic;
    wallInelasticCoeffs
    {
        e       0.9;
        staticFrictionCoeff 0;
        dynamicFrictionCoeff 0.0;
        alpha   0.12;
        b       1.5;
        mu      0.52;
        nu      0.33;
        E       6e8;
        cohesionEnergyDensity 0;
    };
}
// ************************************************************************* //
