/*--------------------------------*- C++ -*----------------------------------*\
  =========                 |
  \\      /  F ield         | OpenFOAM: The Open Source CFD Toolbox
   \\    /   O peration     | Website:  https://openfoam.org
    \\  /    A nd           | Version:  7
     \\/     M anipulation  |
\*---------------------------------------------------------------------------*/
FoamFile
{
    version     2.0;
    format      ascii;
    class       dictionary;
    location    "system/ground";
    object      fvSolution;
}
// * * * * * * * * * * * * * * * * * * * * * * * * * * * * * * * * * * * * * //

solvers
{
    "(D|DD|T)"
    {
        solver          PBiCGStab;
        preconditioner  DIC;
        tolerance       1e-09;
        relTol          0.01;
    }
}

relaxationFactors
{
//     D  0.9;
//     DD 0.5;
}
// ************************************************************************* //
