/*--------------------------------*- C++ -*----------------------------------*\
| =========                 |                                                 |
| \\      /  F ield         | foam-extend: Open Source CFD                    |
|  \\    /   O peration     | Version:     3.2                                |
|   \\  /    A nd           | Web:         http://www.foam-extend.org         |
|    \\/     M anipulation  | For copyright notice see file Copyright         |
\*---------------------------------------------------------------------------*/
FoamFile
{
    version     2.0;
    format      ascii;
    class       dictionary;
    location    "constant";
    object      solidProperties;
}
// * * * * * * * * * * * * * * * * * * * * * * * * * * * * * * * * * * * * * //

// solidModel linearGeometry;
solidModel explicitLinearGeometryTotalLagrangian;

"explicitNonLinearGeometryTotalLagrangianCoeffs|explicitLinearGeometryTotalLagrangianCoeffs"
{
    incompressiblilityCoefficient   0.1;
    angularMomentumConservation     yes;
}

linearGeometryCoeffs
{
    // Maximum number of momentum correctors
    nCorrectors             2000;

    // Solution tolerance for displacement
    solutionTolerance       1e-04;

    // Alternative solution tolerance for displacement
    alternativeTolerance    1e-06;

    // Material law solution tolerance
    materialTolerance       1e-06;

    // Write frequency for the residuals
    infoFrequency           100;
}

// ************************************************************************* //
