/*--------------------------------*- C++ -*----------------------------------*\
  =========                 |
  \\      /  F ield         | OpenFOAM: The Open Source CFD Toolbox
   \\    /   O peration     | Website:  https://openfoam.org
    \\  /    A nd           | Version:  7
     \\/     M anipulation  |
\*---------------------------------------------------------------------------*/
FoamFile
{
    version     2.0;
    format      binary;
    class       dictionary;
    location    "system/ground";
    object      fvSolution;
}
// * * * * * * * * * * * * * * * * * * * * * * * * * * * * * * * * * * * * * //

solvers
{
    "(D|T)"
    {
        solver          PCG;
        tolerance       1e-09;
        relTol          0.1;
        preconditioner  DIC;
    }
}

stressAnalysis
{
    compactNormalStress yes;
    nCorrectors     1;
    D               1e-06;
}

// ************************************************************************* //
