/*--------------------------------*- C++ -*----------------------------------*\
  | =========                 |                                                 |
  | \\      /  F ield         | OpenFOAM: The Open Source CFD Toolbox           |
  |  \\    /   O peration     | Version:  2.3.0                                 |
  |   \\  /    A nd           | Web:      www.OpenFOAM.org                      |
  |    \\/     M anipulation  |                                                 |
  \*---------------------------------------------------------------------------*/
FoamFile
{
  version     2.0;
  format      ascii;
  class       dictionary;
  location    "system";
  object      setFieldsDict;
}
// * * * * * * * * * * * * * * * * * * * * * * * * * * * * * * * * * * * * * //

field alpha.gas;
maxCells 100000;
maxRefinement 4;
nBufferLayers 2;


defaultFieldValues
(
    volVectorFieldValue U               (0 0 0)
    volScalarFieldValue p               101298
    volScalarFieldValue alpha.gas       1
    volScalarFieldValue alpha.c4        0
    volScalarFieldValue alpha.tnt       0
    volScalarFieldValue rho.gas         1.225
    volScalarFieldValue rho.c4          1601
    volScalarFieldValue rho.tnt         1630
);

regions
(
    cylinderToCell
    {
        p1 (-0.5 0.5 -1);
        p2 (-0.5 0.5 1);
        radius 0.05;

        backup
        {
            p1 (-0.5 0.5 -1);
            p2 (-0.5 0.5 1);
            radius 0.2;
        }

        fieldValues
        (
            volScalarFieldValue alpha.c4    1
            volScalarFieldValue alpha.gas   0
            volScalarFieldValue error       1
        );
    }
    boxToCell
    {
        box (0 -0.05 -1) (0.5 0.05 1);

        fieldValues
        (
            volScalarFieldValue alpha.tnt   1
            volScalarFieldValue alpha.gas   0
            volScalarFieldValue error       1
        );
    }
 );

// ************************************************************************* //
