/*--------------------------------*- C++ -*----------------------------------*\
| =========                 |                                                 |
| \\      /  F ield         | OpenFOAM: The Open Source CFD Toolbox           |
|  \\    /   O peration     | Version:  2.3.0                                 |
|   \\  /    A nd           | Web:      www.OpenFOAM.org                      |
|    \\/     M anipulation  |                                                 |
\*---------------------------------------------------------------------------*/
FoamFile
{
    format      ascii;
    class       dictionary;
    location    "system";
    object      "fvSchemes";
}
// * * * * * * * * * * * * * * * * * * * * * * * * * * * * * * * * * * * * * //

fluxScheme      HLLC;

ddtSchemes
{
    default         Euler;
    timeIntegrator  Euler;
}

gradSchemes
{
    default         cellMDLimited leastSquares 1.0;
}

divSchemes
{
    default         none;
}

laplacianSchemes
{
    default         Gauss linear corrected;
}

order limitWith quadraticUpwindFit 1;
interpolationSchemes
{
    default             linear;

    reconstruct(rho)    $order Minmod;
    reconstruct(U)      $order MinmodV;
    reconstruct(e)      $order Minmod;
    reconstruct(p)      $order Minmod;
    reconstruct(speedOfSound) $order Minmod;
}

snGradSchemes
{
    default         corrected;
}


// ************************************************************************* //
