/*--------------------------------*- C++ -*----------------------------------*\
| =========                 |                                                 |
| \\      /  F ield         | OpenFOAM: The Open Source CFD Toolbox           |
|  \\    /   O peration     | Version:  2.3.0                                 |
|   \\  /    A nd           | Web:      www.OpenFOAM.org                      |
|    \\/     M anipulation  |                                                 |
\*---------------------------------------------------------------------------*/
FoamFile
{
    format      ascii;
    class       dictionary;
    location    "system";
    object      "fvSchemes";
}
// * * * * * * * * * * * * * * * * * * * * * * * * * * * * * * * * * * * * * //

fluxScheme      HLLC;

ddtSchemes
{
    default         Euler;
    timeIntegrator  RK2SSP;
}

gradSchemes
{
    default         cellMDLimited leastSquares 1.0;
}

divSchemes
{
    default         none;
    div(rhoPhi,Yi) Riemann;
    div(((rho*nuEff)*dev2(T(grad(U))))) Gauss linear;
}

laplacianSchemes
{
    default         Gauss linear corrected;
}

interpolationSchemes
{
    default             linear;

    reconstruct(rho)    quadraticMUSCL Minmod;
    reconstruct(U)      quadraticMUSCL Minmod;
    reconstruct(e)      quadraticMUSCL Minmod;
    reconstruct(p)      quadraticMUSCL Minmod;
    reconstruct(speedOfSound) quadraticMUSCL Minmod;
}

snGradSchemes
{
    default         corrected;
}


// ************************************************************************* //
