/*--------------------------------*- C++ -*----------------------------------*\
| =========                 |                                                 |
| \\      /  F ield         | OpenFOAM: The Open Source CFD Toolbox           |
|  \\    /   O peration     | Version:  2.3.0                                 |
|   \\  /    A nd           | Web:      www.OpenFOAM.org                      |
|    \\/     M anipulation  |                                                 |
\*---------------------------------------------------------------------------*/
FoamFile
{
    version     2.0;
    format      ascii;
    class       dictionary;
    location    "constant";
    object      immersedBoundaryProperties;
}
// * * * * * * * * * * * * * * * * * * * * * * * * * * * * * * * * * * * * * //
rotation (0.70711 0.70711 0 -0.70711 0.70711 0 0 0 1);
dx 0.05;

objects
{
//     bullet
//     {
//         type stationary;
//         shape stl;
//         file "bullet.stl";
//         dx 0.25e-4;
//         write yes;
//
//         centreOfMass (7.13736e-3 0 0);
//         velocity (500 0 0);

//     ellipse
//     {
//         type stationary;
//         shape ellipse;
//         centreOfMass (0.25 0 0);
//         orientation $rotation;
//         a 0.5;
//         b 0.1;
//         dx 0.005;
//         write yes;
//     }
//     circle
//     {
//         type stationary;
//         shape circle;
//         offset (0 0 0);
//         radius 0.5;
//         b 0.1;
//         dx 0.01;
//         write yes;
//     }

//     box1
//     {
//         type stationary;
//         shape rectangle;
//         L 2.0;
//         H 2.0;
//         centreOfMass (2.0 1.0 0.0);
//         dx $dx;
//     }
//     box2
//     {
//         type stationary;
//         shape rectangle;
//         L 2.0;
//         H 2.0;
//         centreOfMass (2.0 3.1 0.0);
//         dx $dx;
//     }
//     box3
//     {
//         type stationary;
//         shape rectangle;
//         L 2.0;
//         H 2.0;
//         centreOfMass (2.5 5.2 0.0);
//         dx $dx;
//     }
    cone
    {
        type stationary;
        shape triangle;
        dx 0.005;
        p1 (0.1 0 0);
        p2 (1.1 0.1763269807 0.0);
        p3 (1.1 0 0);
        write  yes;
    }

    //3d shapes
//     ellipsoid
//     {
//         type stationary;
//         shape ellipsoid;
//         centreOfMass (0 0 0);
//         mass 0.02;
//         orientation $rotation;
//         a 0.2;
//         b 0.5;
//         c 0.3;
//         write yes;
//         dx 0.1;
//
//         solver
//         {
//             type Newmark;
//         }
//     }
//     box
//     {
//         type stationary;
//         shape box;
//         centreOfMass (0 0.5 0);
//         L (0.2 0.1 0.3);
//         mass 0.02;
//         velocity (0 -1 0);
//         write yes;
//         dx 0.1;
//
//         solver
//         {
//             type Newmark;
//         }
//     }
//     sphere
//     {
//         type stationary;
//         shape box;
//         radius 0.02;
//         L (0.2 0.2 0.2);
//         centreOfMass (0 -0.5 0);
//         orientation $rotation;
//         mass 0.01;
//         dx 0.1;
//
//         solver
//         {
//             type Newmark;
//         }
//     }
}


}
// ************************************************************************* //
