/*--------------------------------*- C++ -*----------------------------------*\
| =========                 |                                                 |
| \\      /  F ield         | OpenFOAM: The Open Source CFD Toolbox           |
|  \\    /   O peration     | Version:  2.3.0                                 |
|   \\  /    A nd           | Web:      www.OpenFOAM.org                      |
|    \\/     M anipulation  |                                                 |
\*---------------------------------------------------------------------------*/
FoamFile
{
    version     2.0;
    format      ascii;
    class       dictionary;
    location    "system";
    object      fvSchemes;
}
// * * * * * * * * * * * * * * * * * * * * * * * * * * * * * * * * * * * * * //

fluxScheme      AUSM+;

ddtSchemes
{
    default         Euler;
    timeIntegrator  RK4SSP;
}

gradSchemes
{
    default         cellMDLimited leastSquares 1.0;
}

divSchemes
{
    default             none;
    div(tauMC)          Gauss linear;
    div(rhoPhi,k)       Gauss upwind;
    div(rhoPhi,epsilon) Gauss upwind;
    div(alphaRhoPhi.c4,lambda.c4)  Riemann;
    div(Ji,Ii_h)        bounded Gauss linearUpwind grad(Ii_h);
}

laplacianSchemes
{
    default         Gauss linear corrected;
}

interpolationSchemes
{
    default             cubic;
    reconstruct(alpha)  Minmod;
    reconstruct(rho)    Minmod;
    reconstruct(U)      MinmodV;
    reconstruct(e)      Minmod;
    reconstruct(p)      Minmod;
    reconstruct(c)      Minmod;

    "reconstruct(.*)"   Minmod;
}

snGradSchemes
{
    default         corrected;
}

wallDist
{
    method meshWave;
}


// ************************************************************************* //
