/*--------------------------------*- C++ -*----------------------------------*\
| =========                 |                                                 |
| \\      /  F ield         | OpenFOAM: The Open Source CFD Toolbox           |
|  \\    /   O peration     | Version:  2.3.0                                 |
|   \\  /    A nd           | Web:      www.OpenFOAM.org                      |
|    \\/     M anipulation  |                                                 |
\*---------------------------------------------------------------------------*/
FoamFile
{
    version     2.0;
    format      ascii;
    class       dictionary;
    location    "system";
    object      fvSolution;
}
// * * * * * * * * * * * * * * * * * * * * * * * * * * * * * * * * * * * * * //

solvers
{
    "(rho|rhoU|rhoE|alpha)"
    {
        solver          diagonal;
    }

    "(U|e)"
    {
        solver          PBiCGStab;
        preconditioner  DIC;
        tolerance       1e-10;
        relTol          0;
        minIter         1;
    }
    "(k|epsilon|lambda.c4)"
    {
        solver          PBiCGStab;
        preconditioner  DILU;
        tolerance       1e-10;
        relTol          0;
        minIter         1;
    }
    G
    {
        solver          PBiCGStab;
        preconditioner  DIC;
        tolerance       1e-10;
        relTol          0;
        minIter         1;
    }
    Ii
    {
        solver          PBiCGStab;
        preconditioner  DILU;
        tolerance       1e-10;
        relTol          0;
        minIter         1;
    }
}


// ************************************************************************* //
