/*--------------------------------*- C++ -*----------------------------------*\
| =========                 |                                                 |
| \\      /  F ield         | OpenFOAM: The Open Source CFD Toolbox           |
|  \\    /   O peration     | Version:  2.3.0                                 |
|   \\  /    A nd           | Web:      www.OpenFOAM.org                      |
|    \\/     M anipulation  |                                                 |
\*---------------------------------------------------------------------------*/
FoamFile
{
    version     2.0;
    format      ascii;
    class       dictionary;
    location    "system";
    object      setFieldsDict;
}
// * * * * * * * * * * * * * * * * * * * * * * * * * * * * * * * * * * * * * //

fields (alpha.c4);
maxRefinement 7;
nBufferLayers 5;

defaultFieldValues
(
    volScalarFieldValue alpha.c4    0
    volVectorFieldValue U (0 0 0)
);


regions
(
    cylinderToCell
    {
        p1 (0 0 0);
        p2 (0 0 1);
        radius 0.1;
        backup
        {
            p1 (0 0 0);
            p2 (0 0 1);
            radius 0.5;
        }
        refineInternal yes;
        level 7;

        fieldValues
        (
            volScalarFieldValue alpha.c4    1
        );
    }
//     cylinderToCell // Pressure based activation
//     {
//         p1 (0 0.1 0);
//         p2 (0 0.1 1);
//         radius 0.01;
//         backup
//         {
//             p1 (0 0 0);
//             p2 (0 0 1);
//             radius 0.5;
//         }
//         refineInternal yes;
//         level 7;
//
//         fieldValues
//         (
//             volVectorFieldValue U   (0 -90 0)
//         );
//     }
);


// ************************************************************************* //
