/*--------------------------------*- C++ -*----------------------------------*\
| =========                 |                                                 |
| \\      /  F ield         | OpenFOAM: The Open Source CFD Toolbox           |
|  \\    /   O peration     | Version:  2.3.0                                 |
|   \\  /    A nd           | Web:      www.OpenFOAM.org                      |
|    \\/     M anipulation  |                                                 |
\*---------------------------------------------------------------------------*/
FoamFile
{
    version     2.0;
    format      ascii;
    class       dictionary;
    object      blockMeshDict;
}
// * * * * * * * * * * * * * * * * * * * * * * * * * * * * * * * * * * * * * //

convertToMeters 1;

x 16.0;

vertices
(
    (0      0.0     0) // bottom
    ($x     0.0     0)
    ($x     $x      0)
    (0      $x      0)
    (0      0       $x)
    ($x     0       $x)
    ($x     $x      $x)
    (0      $x      $x)
);

blocks
(
	 hex (0 1 2 3 4 5 6 7) (20 20 20) simpleGrading (1 1 1)
);

edges
(
);

boundary
(
    ground
    {
        type patch;
        faces
        (
            (0 1 5 4)
        );
    }
    outlet
    {
        type patch;
        faces
        (

            (4 5 6 7)
            (1 2 6 5)
            (2 3 7 6)
        );
    }
    symmetryPlanes
    {
        type symmetry;
        faces
        (
            (0 1 2 3)
            (0 3 7 4)
        );
    }
);

mergePatchPairs
(
);

// ************************************************************************* //
