/*--------------------------------*- C++ -*----------------------------------*\
  =========                 |
  \\      /  F ield         | OpenFOAM: The Open Source CFD Toolbox
   \\    /   O peration     | Website:  https://openfoam.org
    \\  /    A nd           | Version:  dev
     \\/     M anipulation  |
\*---------------------------------------------------------------------------*/
FoamFile
{
    version     2.0;
    format      ascii;
    class       dictionary;
    object      topoSetDict;
}

// * * * * * * * * * * * * * * * * * * * * * * * * * * * * * * * * * * * * * //

actions
(
    {
        name    c0;
        type    cellSet;
        action  clear;
    }
    {
        name    c0;
        type    cellSet;
        action  invert;
    }
    {
        name    c0;
        type    cellSet;
        action  delete;
        source  boxToCell;
        sourceInfo
        {
            box (0 0 -10) (0.1524 0.6858 10);
        }
    }
);

// ************************************************************************* //
