/*--------------------------------*- C++ -*----------------------------------*\
| =========                 |                                                 |
| \\      /  F ield         | OpenFOAM: The Open Source CFD Toolbox           |
|  \\    /   O peration     | Version:  2.3.0                                 |
|   \\  /    A nd           | Web:      www.OpenFOAM.org                      |
|    \\/     M anipulation  |                                                 |
\*---------------------------------------------------------------------------*/
FoamFile
{
    version     2.0;
    format      ascii;
    class       dictionary;
    location    "system";
    object      fvSchemes;
}
// * * * * * * * * * * * * * * * * * * * * * * * * * * * * * * * * * * * * * //

fluxSchemes
{
    gas
    {
        fluxScheme  HLLC;
    }
    particles
    {
        fluxScheme          AUSM+Up;
    }
}

ddtSchemes
{
    default         Euler;
    timeIntegrator  RK2SSP 3;
}

gradSchemes
{
    default         cellMDLimited leastSquares 1;
}

divSchemes
{
    default         none;
    div((((alpha.gas*rho.gas)*nuEff.gas)*dev2(T(grad(U.gas))))) Gauss linear;
    div(sigma.particles) Gauss linear;
    div(alphaRhoPhi.c4,lambda.c4) Riemann; // Use the gas phase Riemann solver
}

laplacianSchemes
{
    default         Gauss linear corrected;
}

limiter quadraticMUSCL vanAlbada;
interpolationSchemes
{
    default             linear;
    "reconstruct\(alpha.*\)"        $limiter;
    "reconstruct\(rho.*\)"          $limiter;
    "reconstruct\(U.*\)"            $limiter;
    "reconstruct\(e.*\)"            $limiter;
    "reconstruct\(p.*\)"            $limiter;
    "reconstruct\(speedOfSound.*\)" $limiter;
    "reconstruct\(Theta.*\)"        $limiter;
    "reconstruct\(lambda.*\)"       $limiter;
}

snGradSchemes
{
    default         corrected;
}


// ************************************************************************* //
