/*--------------------------------*- C++ -*----------------------------------*\
| =========                 |                                                 |
| \\      /  F ield         | OpenFOAM: The Open Source CFD Toolbox           |
|  \\    /   O peration     | Version:  2.3.0                                 |
|   \\  /    A nd           | Web:      www.OpenFOAM.org                      |
|    \\/     M anipulation  |                                                 |
\*---------------------------------------------------------------------------*/
FoamFile
{
    version     2.0;
    format      ascii;
    class       dictionary;
    location    "system";
    object      fvSchemes;
}
// * * * * * * * * * * * * * * * * * * * * * * * * * * * * * * * * * * * * * //

fluxSchemes
{
    gas
    {
        fluxScheme  Tadmor;
    }
    particles
    {
        fluxScheme          AUSM+Up;
        alphaMinFriction    0.5;
    }
}

ddtSchemes
{
    default         Euler;
    timeIntegrator  RK2SSP;
}

gradSchemes
{
    default         cellMDLimited leastSquares 1;
}

divSchemes
{
    default         none;
    div(alphaRhoPhi.c4,lambda.c4) Gauss upwind;
    div(devRhoReff.gas) Gauss linear;
    div((devRhoReff.gas&U.gas)) Gauss linear;
}

laplacianSchemes
{
    default         Gauss linear corrected;
}

interpolationSchemes
{
    default             cubic;
    "reconstruct\(alpha.*\)"  upwindMUSCL;
    "reconstruct\(rho.*\)"  upwindMUSCL;
    "reconstruct\(U.*\)"  upwindMUSCL;
    "reconstruct\(e.*\)"  upwindMUSCL;
    "reconstruct\(p.*\)"  upwindMUSCL;
    "reconstruct\(speedOfSound.*\)"  upwindMUSCL;
    "reconstruct\(Theta.*\)"  upwindMUSCL;
    "reconstruct\(lambda.*\)"  upwindMUSCL;
}

snGradSchemes
{
    default         corrected;
}


// ************************************************************************* //
