/*--------------------------------*- C++ -*----------------------------------*\
  | =========                 |                                                 |
  | \\      /  F ield         | OpenFOAM: The Open Source CFD Toolbox           |
  |  \\    /   O peration     | Version:  2.3.0                                 |
  |   \\  /    A nd           | Web:      www.OpenFOAM.org                      |
  |    \\/     M anipulation  |                                                 |
  \*---------------------------------------------------------------------------*/
FoamFile
{
  version     2.0;
  format      ascii;
  class       dictionary;
  location    "system";
  object      setFieldsDict;
}
// * * * * * * * * * * * * * * * * * * * * * * * * * * * * * * * * * * * * * //
fields (alpha.particles);
nBufferLayers 1;

defaultFieldValues
(
    volScalarFieldValue p               101298
    volScalarFieldValue alpha.particles 0
    volScalarFieldValue alpha.c4        0
    volScalarFieldValue alpha.air       1
);

regions
(
    boxToCell
    {
        level 1;
        box (-25 -25 -0.1) (25 10 0.1);

        fieldValues
        (
            volScalarFieldValue alpha.particles 0.55
        );
    }
    sphereToCell
    {
        centre (0 -1 0);
        radius 0.5;
        level 2;
        refineInternal yes;

        backup
        {
            centre (0 -1 0);
            radius 1;
        }

        fieldValues
        (
            volScalarFieldValue alpha.particles 0
            volScalarFieldValue alpha.c4        1
            volScalarFieldValue alpha.air       0
        );
    }
);

// ************************************************************************* //
