/*--------------------------------*- C++ -*----------------------------------*\
  =========                 |
  \\      /  F ield         | OpenFOAM: The Open Source CFD Toolbox
   \\    /   O peration     | Website:  https://openfoam.org
    \\  /    A nd           | Version:  dev
     \\/     M anipulation  |
\*---------------------------------------------------------------------------*/
FoamFile
{
    version     2.0;
    format      ascii;
    class       dictionary;
    object      dynamicMeshDict;
}
// * * * * * * * * * * * * * * * * * * * * * * * * * * * * * * * * * * * * * //

dynamicFvMesh   movingAdaptiveFvMesh;
errorEstimator scaledDelta;      // Model used to estimate error
scaledDeltaField p;

solver      displacementComponentLaplacian;

displacementComponentLaplacianCoeffs
{
    diffusivity quadratic inverseDistance (air_to_plate);
    component x;
    applyPointLocation no;
}

// How often to refine
refineInterval  3;

// Refine field in between lower..upper (varies based on errorEstimator)
lowerRefineLevel 0.01;

// If value < unrefineLevel unrefine
unrefineLevel   0.01;

// Number of cells refined around high error cells
nBufferLayers   3;

// Refine cells only up to maxRefinement levels
maxRefinement   2;

// Write the refinement level as a volScalarField
dumpLevel       true;

// ************************************************************************* //
