/*--------------------------------*- C++ -*----------------------------------*\
| =========                 |                                                 |
| \\      /  F ield         | OpenFOAM: The Open Source CFD Toolbox           |
|  \\    /   O peration     | Version:  2.3.0                                 |
|   \\  /    A nd           | Web:      www.OpenFOAM.org                      |
|    \\/     M anipulation  |                                                 |
\*---------------------------------------------------------------------------*/
FoamFile
{
    version     2.0;
    format      ascii;
    class       dictionary;
    location    "system";
    object      setFieldsDict;
}
// * * * * * * * * * * * * * * * * * * * * * * * * * * * * * * * * * * * * * //

fields (alpha.c4);
maxCells 100000;
maxRefinement 4;
nBufferLayers 1;

//- Calc
rho     1601.0;
mass    8.0; // pounds
V       #calc "$mass/2.20462/$rho";
R       #calc "cbrt($V/4/3.141529*3)";

defaultFieldValues
(
    volVectorFieldValue U ( 0 0 0 )
    volScalarFieldValue p 101298
    volScalarFieldValue alpha.c4 0
    volScalarFieldValue rho.c4  $rho
    volScalarFieldValue rho.air 1.225
);


regions
(
    sphereToCell // Use cylinder for 3D
    {
        centre (-0.3048 0.3048 0);
        radius $R;
        backup
        {
            centre (-0.3048 0.3048 0);
            radius 0.25;
        }

        fieldValues
        (
            volScalarFieldValue alpha.c4    1
            volScalarFieldValue rho.air     0
            volScalarFieldValue error       1 //Refine all cells in sphere
        );
    }
);


// ************************************************************************* //
