/*--------------------------------*- C++ -*----------------------------------*\
| =========                 |                                                 |
| \\      /  F ield         | OpenFOAM: The Open Source CFD Toolbox           |
|  \\    /   O peration     | Version:  2.3.0                                 |
|   \\  /    A nd           | Web:      www.OpenFOAM.org                      |
|    \\/     M anipulation  |                                                 |
\*---------------------------------------------------------------------------*/
FoamFile
{
    version     2.0;
    format      ascii;
    class       dictionary;
    location    "system";
    object      controlDict;
}
// * * * * * * * * * * * * * * * * * * * * * * * * * * * * * * * * * * * * * //

application     blastFoam;

startFrom       startTime;

startTime       0;

stopAt          endTime;

endTime         0.01;

deltaT          1e-7;

writeControl    adjustableRunTime;

writeInterval   1e-5;

cycleWrite      0;

writeFormat     binary;

writePrecision  6;

writeCompression off;

timeFormat      general; // fixed; // using precision below --- better for paraview

timePrecision   12;

runTimeModifiable true;

adjustTimeStep  yes;

maxCo           0.1;

maxDeltaT       1e-5;

// ************************************************************************* //
functions
{}

// ************************************************************************* //
