/*--------------------------------*- C++ -*----------------------------------*\
| =========                 |                                                 |
| \\      /  F ield         | OpenFOAM: The Open Source CFD Toolbox           |
|  \\    /   O peration     | Version:  2.3.0                                 |
|   \\  /    A nd           | Web:      www.OpenFOAM.org                      |
|    \\/     M anipulation  |                                                 |
\*---------------------------------------------------------------------------*/
FoamFile
{
    version     2.0;
    format      ascii;
    class       dictionary;
    location    "system";
    object      setFieldsDict;
}
// * * * * * * * * * * * * * * * * * * * * * * * * * * * * * * * * * * * * * //

field alpha.air;
maxCells 100000;
maxRefinement 3;
nBufferLayers 1;

defaultFieldValues
(
    volVectorFieldValue U ( 0 0 0 )
    volScalarFieldValue p 1.1e5
    volScalarFieldValue alpha.air 0
    volScalarFieldValue e 0
    volScalarFieldValue rho.air 1
    volScalarFieldValue rho.water 1000
);


regions
(
    cylinderToCell
    {
        p1 (0 0 -1);
        p2 (0 0 1);
        radius 0.1;

        fieldValues
        (
            volScalarFieldValue p 9.12e8
            volScalarFieldValue alpha.air 1
            volScalarFieldValue e 0
            volScalarFieldValue rho.air 1270
            volScalarFieldValue rho.water 1000
        );
    }

    boxToCell
    {
        boxes ((-0.6 0.3 -1) (0.6 0.6 1));

        fieldValues
        (
            volScalarFieldValue p 1.1e5
            volScalarFieldValue alpha.air 1
            volScalarFieldValue e 0
            volScalarFieldValue rho.air 1
            volScalarFieldValue rho.water 1000
        );
    }
);


// ************************************************************************* //
