/*--------------------------------*- C++ -*----------------------------------*\
| =========                 |                                                 |
| \\      /  F ield         | OpenFOAM: The Open Source CFD Toolbox           |
|  \\    /   O peration     | Version:  2.3.0                                 |
|   \\  /    A nd           | Web:      www.OpenFOAM.org                      |
|    \\/     M anipulation  |                                                 |
\*---------------------------------------------------------------------------*/
FoamFile
{
    version     2.0;
    format      ascii;
    class       dictionary;
    location    "system";
    object      setFieldsDict;
}
// * * * * * * * * * * * * * * * * * * * * * * * * * * * * * * * * * * * * * //

regions
(
    boxToPoint
    {
        box (0.99 -2 0.5) (1.01 2 1.5);
        backup
        {
            box (0.5 -2 0) (1.5 2 2);
        }
        faceZones
        (
            {
                selectionMode internal;
                name baffleFaces;
                action new;
            }
        );
    }
    boxToCell
    {
        box (4.5 -2 1.75) (10 2 2.5);
        faceSets
        (
            {
                selectionMode boundary;
                patches (walls);
                name outletFaces;
                action new;
            }
        );
    }
);


// ************************************************************************* //
