/*--------------------------------*- C++ -*----------------------------------*\
| =========                 |                                                 |
| \\      /  F ield         | OpenFOAM: The Open Source CFD Toolbox           |
|  \\    /   O peration     | Version:  2.3.0                                 |
|   \\  /    A nd           | Web:      www.OpenFOAM.org                      |
|    \\/     M anipulation  |                                                 |
\*---------------------------------------------------------------------------*/
FoamFile
{
    version     2.0;
    format      ascii;
    class       dictionary;
    location    "constant";
    object      MieGruneisenEOSProperties;
}
// * * * * * * * * * * * * * * * * * * * * * * * * * * * * * * * * * * * * * //

phases (copper gas);

copper
{
    type        CochranChan;
    Gamma0      2.0;
    A           1.45667e11;
    B           1.4775e11;
    Epsilon1    2.994;
    Epsilon2    1.994;
    rho0        8900;
    e0          117900;
    residualRho 1e-10;
    residualAlpha 0.0;
}

gas
{
    type        JWL;
    Gamma0      0.25;
    A           854.5e9;
    B           20.510e9;
    R1          4.6;
    R2          1.35;
    rho0        1840.0;
    E0          0;
    residualRho 1e-10;
    cutOffRho 0.0;
    residualAlpha 0;
}


// ************************************************************************* //
