/*--------------------------------*- C++ -*----------------------------------*\
  =========                 |
  \\      /  F ield         | OpenFOAM: The Open Source CFD Toolbox
   \\    /   O peration     | Website:  https://openfoam.org
    \\  /    A nd           | Version:  7
     \\/     M anipulation  |
\*---------------------------------------------------------------------------*/
FoamFile
{
    version     2.0;
    format      ascii;
    class       dictionary;
    location    "system";
    object      fvSchemes;
}
// * * * * * * * * * * * * * * * * * * * * * * * * * * * * * * * * * * * * * //

fluxScheme Kurganov;

ddtSchemes
{
    default         Euler;
    timeIntegrator  RK2SSP 3;
}

gradSchemes
{
    default         cellMDLimited leastSquares 1.0;
    grad(cellDisplacement) Gauss linear;
}

divSchemes
{
    default         none;
    div(tauMC)      Gauss linear;
    div(((rho*nuEff)*dev2(T(grad(U))))) Gauss linear;
    div(devRhoReff) Gauss linear;
    div(alphaRhoPhi.c4,lambda.c4) Riemann;
}

laplacianSchemes
{
    default         Gauss linear corrected;
    laplacian(diffusivity,cellDisplacement) Gauss linear uncorrected;
}

interpolationSchemes
{
    default         linear;
    reconstruct(alpha)  quadraticMUSCL Minmod;
    reconstruct(rho)    quadraticMUSCL Minmod;
    reconstruct(U)      quadraticMUSCL Minmod;
    reconstruct(e)      quadraticMUSCL Minmod;
    reconstruct(p)      quadraticMUSCL Minmod;
    reconstruct(speedOfSound) quadraticMUSCL Minmod;
    "reconstruct(.*)"   quadraticMUSCL Minmod;
}

snGradSchemes
{
    default         corrected;
}


// ************************************************************************* //
