/*--------------------------------*- C++ -*----------------------------------*\
| =========                 |                                                 |
| \\      /  F ield         | foam-extend: Open Source CFD                    |
|  \\    /   O peration     | Version:     3.2                                |
|   \\  /    A nd           | Web:         http://www.foam-extend.org         |
|    \\/     M anipulation  | For copyright notice see file Copyright         |
\*---------------------------------------------------------------------------*/
FoamFile
{
    version     2.0;
    format      ascii;
    class       dictionary;
    location    "constant";
    object      solidProperties;
}
// * * * * * * * * * * * * * * * * * * * * * * * * * * * * * * * * * * * * * //

// solidModel explicitUnsNonLinearGeometryTotalLagrangianTotalDisplacement;
solidModel explicitLinearGeometryTotalLagrangian;

linearGeometryTotalDisplacementCoeffs
{
    // Maximum number of momentum correctors
    nCorrectors     2000;

    // Solution tolerance for displacement
    solutionTolerance 1e-06;

    // Alternative solution tolerance for displacement
    alternativeTolerance 1e-06;

    // Material law solution tolerance
    materialTolerance 1e-05;

    // Write frequency for the residuals
    infoFrequency   100;
}
"explicitUnsLinearGeometryTotalDisplacementCoeffs|explicitUnsNonLinearGeometryTotalLagrangianTotalDisplacementCoeffs"
{
    JSTScaleFactor 0.027;
}

"explicit.*"
{
    incompressiblilityCoefficient 1;
    angularMomentumConservation yes;
    JSTScaleFactor 0;
}


// ************************************************************************* //
