/*--------------------------------*- C++ -*----------------------------------*\
| =========                 |                                                 |
| \\      /  F ield         | OpenFOAM: The Open Source CFD Toolbox           |
|  \\    /   O peration     | Version:  2.3.0                                 |
|   \\  /    A nd           | Web:      www.OpenFOAM.org                      |
|    \\/     M anipulation  |                                                 |
\*---------------------------------------------------------------------------*/
FoamFile
{
    version     2.0;
    format      ascii;
    class       dictionary;
    location    "constant";
    object      MieGruneisenEOSProperties;
}
// * * * * * * * * * * * * * * * * * * * * * * * * * * * * * * * * * * * * * //

phases (fluid gas);

fluid
{
    type        stiffenedGas;
    gamma       4.4;
    a           6.0e8;
    residualRho 1e-10;
    residualAlpha 1e-6;
}

gas
{
  type          vanderWaals;
  gamma         1.4;
  a             5.0;
  b             1e-3;
  residualRho   1e-10;
  residualAlpha 1e-6;
}


// ************************************************************************* //
