/*--------------------------------*- C++ -*----------------------------------*\
  | =========                 |                                                 |
  | \\      /  F ield         | OpenFOAM: The Open Source CFD Toolbox           |
  |  \\    /   O peration     | Version:  2.3.0                                 |
  |   \\  /    A nd           | Web:      www.OpenFOAM.org                      |
  |    \\/     M anipulation  |                                                 |
  \*---------------------------------------------------------------------------*/
FoamFile
{
  version     2.0;
  format      ascii;
  class       dictionary;
  object      blockMeshDict;
}
// * * * * * * * * * * * * * * * * * * * * * * * * * * * * * * * * * * * * * //

convertToMeters 1; // feet to meters

vertices
(
    (0 0 0)
    (1 0 0)
    (1 1 0)
    (0 1 0)
    (0 0 .1)
    (1 0 .1)
    (1 1 .1)
    (0 1 .1)
);

blocks
(
 hex (0 1 2 3 4 5 6 7) (50 50 1) simpleGrading (1 1 1) // only multiply by 2
 );

edges
(
);

defaultPatch
{
	name frontAndBack;
	type empty;
}

boundary
(
    walls
    {
        type wall;
        faces
        (
            (0 4 7 3)
            (1 2 6 5)
            (0 1 5 4)
            (2 3 7 6)
        );
    }
 );

mergePatchPairs
(
);

// ************************************************************************* //
