/*--------------------------------*- C++ -*----------------------------------*\
| =========                 |                                                 |
| \\      /  F ield         | OpenFOAM: The Open Source CFD Toolbox           |
|  \\    /   O peration     | Version:  2.3.0                                 |
|   \\  /    A nd           | Web:      www.OpenFOAM.org                      |
|    \\/     M anipulation  |                                                 |
\*---------------------------------------------------------------------------*/
FoamFile
{
    version     2.0;
    format      ascii;
    class       volScalarField;
    object      p;
}
// * * * * * * * * * * * * * * * * * * * * * * * * * * * * * * * * * * * * * //

dimensions      [1 -1 -2 0 0 0 0];

internalField   uniform 1e5;

boundaryField
{
    inlet
    {
        type            pressureWaveTransmissive;
        value           uniform 1e9;
    }
    outlet
    {
        type            pressureWaveTransmissive;
        value           uniform 1e5;
    }
    walls
    {
        type            zeroGradient;
    }
    symmetryPlane
    {
        type            symmetryPlane;
    }
    defaultFaces
    {
        type            empty;
    }
}

// ************************************************************************* //
