/*--------------------------------*- C++ -*----------------------------------*\
| =========                 |                                                 |
| \\      /  F ield         | OpenFOAM: The Open Source CFD Toolbox           |
|  \\    /   O peration     | Version:  2.3.0                                 |
|   \\  /    A nd           | Web:      www.OpenFOAM.org                      |
|    \\/     M anipulation  |                                                 |
\*---------------------------------------------------------------------------*/
FoamFile
{
    version     2.0;
    format      ascii;
    class       volScalarField;
    object      rho.air;
}
// * * * * * * * * * * * * * * * * * * * * * * * * * * * * * * * * * * * * * //

dimensions      [1 -3 0 0 0 0 0];

internalField   uniform 1.225;

boundaryField
{
    walls
    {
        type            zeroGradient;
    }

    windows_master
    {
        type            burstCyclicAMI;
        intactPatch
        {
            type      zeroGradient;
        }
    }
    windows_slave
    {
        type            burstCyclicAMI;
        intactPatch
        {
            type      zeroGradient;
        }
    }

    baffles_master
    {
        type      zeroGradient;
    }
    baffles_slave
    {
        type      zeroGradient;
    }

    outlet
    {
        type            zeroGradient;
    }

    defaultFaces
    {
        type            empty;
    }
}

// ************************************************************************* //
