/*--------------------------------*- C++ -*----------------------------------*\
  =========                 |
  \\      /  F ield         | OpenFOAM: The Open Source CFD Toolbox
   \\    /   O peration     | Website:  https://openfoam.org
    \\  /    A nd           | Version:  9
     \\/     M anipulation  |
\*---------------------------------------------------------------------------*/
FoamFile
{
    format      ascii;
    class       dictionary;
    object      blockMeshDict;
}
// * * * * * * * * * * * * * * * * * * * * * * * * * * * * * * * * * * * * * //

convertToMeters 1;

vertices
(
    (0 0 0)
    (1 0 0)
    (1 1 0)
    (0 1 0)
    (0 0 1)
    (1 0 1)
    (1 1 1)
    (0 1 1)
);

blocks
(
    hex (0 1 2 3 4 5 6 7) (100 1 1) simpleGrading (1 1 1)
);

edges
(
);

boundary
(
    sides
    {
        type patch;
        faces
        (
            (0 3 7 4)
            (1 2 6 5)
        );
    }
    symmetryPlanes
    {
        type empty;
        faces
        (
            (3 2 6 7)
            (4 5 6 7)
            (0 1 2 3)
            (0 1 5 4)
        );
    }
);

// ************************************************************************* //
