/*--------------------------------*- C++ -*----------------------------------*\
| =========                 |                                                 |
| \\      /  F ield         | OpenFOAM: The Open Source CFD Toolbox           |
|  \\    /   O peration     | Version:  2.3.0                                 |
|   \\  /    A nd           | Web:      www.OpenFOAM.org                      |
|    \\/     M anipulation  |                                                 |
\*---------------------------------------------------------------------------*/
FoamFile
{
    version     2.0;
    format      ascii;
    class       dictionary;
    object      topoSetDict;
}
// * * * * * * * * * * * * * * * * * * * * * * * * * * * * * * * * * * * * * //

actions
(
    {
        name    windows;
        type    faceZoneSet;
        action  new;
        source  searchableSurfaceToFaceZone;
        sourceInfo
        {
            surface searchableBox;
            min (1.125 -2.375 -1);
            max (5.875 2.375 3.875);
        }
    }
);

// ************************************************************************* //
