/*--------------------------------*- C++ -*----------------------------------*\
| =========                 |                                                 |
| \\      /  F ield         | OpenFOAM: The Open Source CFD Toolbox           |
|  \\    /   O peration     | Version:  2.3.0                                 |
|   \\  /    A nd           | Web:      www.OpenFOAM.org                      |
|    \\/     M anipulation  |                                                 |
\*---------------------------------------------------------------------------*/
FoamFile
{
    version     2.0;
    format      ascii;
    class       dictionary;
    object      blockMeshDict;
}
// * * * * * * * * * * * * * * * * * * * * * * * * * * * * * * * * * * * * * //

convertToMeters 1;

vertices
(
    // this domain is slightly larger than the bounds of the geometry in the stl
    ( -1.2  -0.6  0 ) // bottom
    (  1.2  -0.6  0 )
    (  1.2   1.2  0 )
    ( -1.2   1.2  0 )
    ( -1.2  -0.6  0.1) // top
    (  1.2  -0.6  0.1)
    (  1.2   1.2  0.1)
    ( -1.2   1.2  0.1)
);

blocks
(
	 hex (0 1 2 3 4 5 6 7) (100 75 1) simpleGrading (1 1 1) // control refinement of background mesh here
	// this is the coarsest element in the mesh, is "level 0" in refinement; make this is "fine enough"
);

edges
(
);

boundary
(

    wall
    {
        type wall;
        faces
        (
            (0 1 5 4)
            (1 2 6 5)
            (3 2 6 7)
            (0 3 7 4)
        );
    }

//     outlet
//     {
//         type patch;
//         faces
//         (
//             (1 2 6 5)
//             (3 2 6 7)
//             (0 3 7 4)
//         );
//     }

);

mergePatchPairs
(
);

// ************************************************************************* //
