/*--------------------------------*- C++ -*----------------------------------*\
| =========                 |                                                 |
| \\      /  F ield         | OpenFOAM: The Open Source CFD Toolbox           |
|  \\    /   O peration     | Version:  2.3.0                                 |
|   \\  /    A nd           | Web:      www.OpenFOAM.org                      |
|    \\/     M anipulation  |                                                 |
\*---------------------------------------------------------------------------*/
FoamFile
{
    version     2.0;
    format      ascii;
    class       dictionary;
    location    "system";
    object      fvSchemes;
}
// * * * * * * * * * * * * * * * * * * * * * * * * * * * * * * * * * * * * * //

fluxScheme      HLLC;

ddtSchemes
{
    default         Euler;
    timeIntegrator  RK2SSP 3;
}

gradSchemes
{
    default         cellMDLimited leastSquares 1;
}

divSchemes
{
    default         none;
    div(phi,alpha.air) Gauss MPLIC interfaceCompression vanLeer 1;
}

laplacianSchemes
{
    default         Gauss linear corrected;
}

interpolationSchemes
{
    default             linear;
    reconstruct(alpha)  none MPLIC;
    reconstruct(rho)    linearUpwind vanLeer;
    reconstruct(U)      linearUpwind vanLeerV;
    reconstruct(e)      linearUpwind vanLeer;
    reconstruct(p)      linearUpwind vanLeer;
    reconstruct(speedOfSound) linearUpwind vanLeer;
}

snGradSchemes
{
    default         corrected;
}


// ************************************************************************* //
