/*--------------------------------*- C++ -*----------------------------------*\
| =========                 |                                                 |
| \\      /  F ield         | OpenFOAM: The Open Source CFD Toolbox           |
|  \\    /   O peration     | Version:  2.3.0                                 |
|   \\  /    A nd           | Web:      www.OpenFOAM.org                      |
|    \\/     M anipulation  |                                                 |
\*---------------------------------------------------------------------------*/
FoamFile
{
    version     2.0;
    format      ascii;
    class       dictionary;
    location    "system";
    object      setFieldsDict;
}
// * * * * * * * * * * * * * * * * * * * * * * * * * * * * * * * * * * * * * //

fields (alpha.air);
nBufferLayers 0;

defaultFieldValues
(
    volScalarFieldValue p           1.1e5
    volScalarFieldValue alpha.air   0
    volScalarFieldValue rho.air     1
    volScalarFieldValue rho.water   1000
);


regions
(
    cylinderToCell
    {
        p1 (0 0 -1);
        p2 (0 0 1);
        radius 0.1;
        level 5;

        fieldValues
        (
            volScalarFieldValue p           9.12e8
            volScalarFieldValue alpha.air   1
            volScalarFieldValue rho.air     1270
            volScalarFieldValue rho.water   1000
        );
    }

    boxToCell
    {
        boxes ((-1.2 0.3 -1) (1.2 1.2 1));
        level 3;

        fieldValues
        (
            volScalarFieldValue p           1.1e5
            volScalarFieldValue alpha.air   1
            volScalarFieldValue rho.air      1
            volScalarFieldValue rho.water   1000
        );
    }
);


// ************************************************************************* //
