/*--------------------------------*- C++ -*----------------------------------*\
  =========                 |
  \\      /  F ield         | OpenFOAM: The Open Source CFD Toolbox
   \\    /   O peration     | Website:  https://openfoam.org
    \\  /    A nd           | Version:  7
     \\/     M anipulation  |
\*---------------------------------------------------------------------------*/
FoamFile
{
    version     2.0;
    format      ascii;
    class       pointVectorField;
    object      pointDisplacement;
}
// * * * * * * * * * * * * * * * * * * * * * * * * * * * * * * * * * * * * * //

dimensions      [0 1 0 0 0 0 0];

internalField   uniform (0 0 0);

boundaryField
{
    bottom
    {
        type fixedValue;
        value $internalField;
    }
    top
    {
        type fixedValue;
        value $internalField;
    }
    left
    {
        type fixedValue;
        value $internalField;
    }
    right
    {
        type fixedValue;
        value $internalField;
    }
    bottom
    {
        type fixedValue;
        value $internalField;
    }
    top
    {
        type fixedValue;
        value $internalField;
    }
    processor
    {
        type processor;
    }
}

// ************************************************************************* //
