/*--------------------------------*- C++ -*----------------------------------*\
| =========                 |                                                 |
| \\      /  F ield         | OpenFOAM: The Open Source CFD Toolbox           |
|  \\    /   O peration     | Version:  2.3.0                                 |
|   \\  /    A nd           | Web:      www.OpenFOAM.org                      |
|    \\/     M anipulation  |                                                 |
\*---------------------------------------------------------------------------*/
FoamFile
{
    version     2.0;
    format      ascii;
    class       volScalarField;
    object      T;
}
// * * * * * * * * * * * * * * * * * * * * * * * * * * * * * * * * * * * * * //

dimensions      [0 0 0 1 0 0 0];

internalField   uniform 1.0;

boundaryField
{
    top
    {
        type            zeroGradient;
        value           $internalField;
    }
    bottom
    {
        type            zeroGradient;
        value           $internalField;
    }
    left
    {
        type            zeroGradient;
        value           $internalField;
    }
    right
    {
        type            zeroGradient;
        value           $internalField;
    }

    defaultFaces
    {
        type            empty;
    }
}

// ************************************************************************* //
