/*--------------------------------*- C++ -*----------------------------------*\
| =========                 |                                                 |
| \\      /  F ield         | OpenFOAM: The Open Source CFD Toolbox           |
|  \\    /   O peration     | Version:  2.3.0                                 |
|   \\  /    A nd           | Web:      www.OpenFOAM.org                      |
|    \\/     M anipulation  |                                                 |
\*---------------------------------------------------------------------------*/
FoamFile
{
    version     2.0;
    format      ascii;
    class       volVectorField;
    object      U;
}
// * * * * * * * * * * * * * * * * * * * * * * * * * * * * * * * * * * * * * //

dimensions      [0 1 -1 0 0 0 0];

internalField   uniform (0 0 0);

boundaryField
{
    top
    {
        type            zeroGradient;
        value           $internalField;
    }
    bottom
    {
        type            zeroGradient;
        value           uniform (0 0 0);
    }
    left
    {
        type            zeroGradient;
        value           uniform (0.7276 0 0);
    }
    right
    {
        type            zeroGradient;
        value           uniform (0 0.7276 0);
    }
    defaultFaces
    {
        type            empty;
    }
}

// ************************************************************************* //
