/*--------------------------------*- C++ -*----------------------------------*\
  =========                 |
  \\      /  F ield         | OpenFOAM: The Open Source CFD Toolbox
   \\    /   O peration     | Website:  https://openfoam.org
    \\  /    A nd           | Version:  7
     \\/     M anipulation  |
\*---------------------------------------------------------------------------*/
FoamFile
{
    version     2.0;
    format      ascii;
    class       dictionary;
    object      blockMeshDict;
}
// * * * * * * * * * * * * * * * * * * * * * * * * * * * * * * * * * * * * * //

#include "../../geometry"

blocks
(
    hex (1 2 6 5 1 2 14 13) ($nx12Plate $ny01Plate 1) simpleGrading (1 1 1)
);

edges
(
);

boundary
(
    plateEnd
    {
        type mappedMovingWall;
        sampleMode nearestPatchFace;
        sampleRegion air;
        samplePatch plateEnd;
        faces
        (
             (5 6 14 13)
        );
    }
    plate_to_air
    {
        type mappedMovingWall;
        sampleMode nearestPatchFace;
        sampleRegion air;
        samplePatch air_to_plate;
        faces
        (
            (1 5 13 1)
            (6 2 2 14)
        );
    }
    wedge0
    {
        type wedge;
        faces
        (
             (1 2 6 5)
        );
    }
    wedge1
    {
        type wedge;
        faces
        (
             (1 2 14 13)
        );
    }
);

mergePatchPairs
(
);


// ************************************************************************* //
