/*--------------------------------*- C++ -*----------------------------------*\
| =========                 |                                                 |
| \\      /  F ield         | OpenFOAM: The Open Source CFD Toolbox           |
|  \\    /   O peration     | Version:  dev                                   |
|   \\  /    A nd           | Web:      www.OpenFOAM.org                      |
|    \\/     M anipulation  |                                                 |
\*---------------------------------------------------------------------------*/
FoamFile
{
    version     2.0;
    format      ascii;
    class       dictionary;
    object      blockMeshDict;
}
// * * * * * * * * * * * * * * * * * * * * * * * * * * * * * * * * * * * * * //

convertToMeters 1;

vertices
(
    (0      0       0   )
    (0.1    0       0   )
    (0.1    0.05    0   )
    (0      0.05    0   )
    (0      0       0.05)
    (0.1    0       0.05)
    (0.1    0.05    0.05)
    (0      0.05    0.05)
);

blocks
(
    hex (0 1 2 3 4 5 6 7) (200 1 1) simpleGrading (1 1 1)
);

edges
(
);

boundary
(
    inlet
    {
        type patch;
        faces
        (
            (0 3 4 7)
        );
    }
    outlet
    {
        type patch;
        faces
        (
            (1 2 6 5)
        );
    }
);

mergePatchPairs
(
);

// ************************************************************************* //
