/*--------------------------------*- C++ -*----------------------------------*\
  =========                 |
  \\      /  F ield         | OpenFOAM: The Open Source CFD Toolbox
   \\    /   O peration     | Website:  https://openfoam.org
    \\  /    A nd           | Version:  dev
     \\/     M anipulation  |
\*---------------------------------------------------------------------------*/
FoamFile
{
    version     2.0;
    format      ascii;
    class       dictionary;
    location    "constant";
    object      dynamicMeshDict;
}
// * * * * * * * * * * * * * * * * * * * * * * * * * * * * * * * * * * * * * //

dynamicFvMesh   adaptiveFvMesh;

balance no;

errorEstimator densityGradient;

// How often to refine
refineInterval  2;

// Refine field in between lower..upper
lowerRefineLevel 0.01;

// If value < unrefineLevel unrefine
unrefineLevel   0.01;

// Have slower than 2:1 refinement
nBufferLayers   1;

// Refine cells only up to maxRefinement levels
maxRefinement   1;

dumpLevel yes;

// ************************************************************************* //
