/*--------------------------------*- C++ -*----------------------------------*\
  =========                 |
  \\      /  F ield         | OpenFOAM: The Open Source CFD Toolbox
   \\    /   O peration     | Website:  https://openfoam.org
    \\  /    A nd           | Version:  dev
     \\/     M anipulation  |
\*---------------------------------------------------------------------------*/
FoamFile
{
    version     2.0;
    format      ascii;
    class       dictionary;
    location    "constant";
    object      populationaBalanceProperties;
}
// * * * * * * * * * * * * * * * * * * * * * * * * * * * * * * * * * * * * * //

populationBalanceModel  sizeVelocity;
phaseName               particles;
rho                     2500;
residualAlpha           1e-6;

dragModel SchillerNaumann;

sizeVelocityCoeffs
{
    odeCoeffs
    {
        solveOde on;
        solveSources off;

        ATol    1.0e-6;
        RTol    1.0e-3;
        fac     0.9;
        facMin  0.5;
        facMax  2.0;
        minLocalDt 1.0e-10;
    }

    diffusionModel
    {
        diffusionModel  turbulentDiffusion;
        gammaLam        gammaLam    [ 0 2 -1 0 0 0 0 ] 4e-6;
        Sc              0.7;
    }

    collision  off;

    collisionKernel
    {
        collisionKernel Boltzmann;
        e           0.8;
        rho         2500;
    }

    aggregation on;
    aggregationKernel
    {
        aggregationKernel turbulentBrownian;
    }

    breakup on;
    breakupKernel
    {
        breakupKernel LuoSvendsen;

        Cb        Cb        [ 0 0 0 0 0 0 0 ] 0.2;
        epsilonExp          0.75;
        nuExp              -1.25;
        sizeExp             1.0;

        daughterDistribution
        {
            daughterDistribution symmetricFragmentation;
        }
    }
}

// ************************************************************************* //
