/*--------------------------------*- C++ -*----------------------------------*\
| =========                 |                                                 |
| \\      /  F ield         | foam-extend: Open Source CFD                    |
|  \\    /   O peration     | Version:     4.1                                |
|   \\  /    A nd           | Web:         http://www.foam-extend.org         |
|    \\/     M anipulation  |                                                 |
\*---------------------------------------------------------------------------*/
FoamFile
{
    version     2.0;
    format      ascii;
    class       dictionary;
    location    "constant";
    object      solidProperties;
}
// * * * * * * * * * * * * * * * * * * * * * * * * * * * * * * * * * * * * * //

// solidModel nonLinearGeometryTotalLagrangian;
// solidModel explicitUnsLinearGeometryTotalDisplacement;
// solidModel explicitLinearGeometryTotalLagrangian;
solidModel explicitNonLinearGeometryTotalLagrangian;

explicitUnsLinearGeometryTotalDisplacementCoeffs
{
    JSTScaleFactor 0.02;
}

"explicitNonLinearGeometryTotalLagrangianCoeffs|explicitLinearGeometryTotalLagrangianCoeffs"
{
    incompressiblilityCoefficient   0.2;
    angularMomentumConservation     yes;
}


nonLinearGeometryTotalLagrangianCoeffs
{
    // Maximum number of momentum correctors
    nCorrectors             1000;

    // Solution tolerance for displacement
    solutionTolerance       1e-04;

    // Alternative solution tolerance for displacement
    alternativeTolerance    1e-06;

    // Material law solution tolerance
    materialTolerance       1e-06;

    // Write frequency for the residuals
    infoFrequency           100;
}


// ************************************************************************* //
