/*--------------------------------*- C++ -*----------------------------------*\
| =========                 |                                                 |
| \\      /  F ield         | OpenFOAM: The Open Source CFD Toolbox           |
|  \\    /   O peration     | Version:  2.3.0                                 |
|   \\  /    A nd           | Web:      www.OpenFOAM.org                      |
|    \\/     M anipulation  |                                                 |
\*---------------------------------------------------------------------------*/
FoamFile
{
    version     2.0;
    format      ascii;
    class       dictionary;
    location    "system";
    object      fvSchemes;
}
// * * * * * * * * * * * * * * * * * * * * * * * * * * * * * * * * * * * * * //

fluxScheme      HLLC;

ddtSchemes
{
    default         Euler;
    timeIntegrator  RK4SSP;
}

gradSchemes
{
    default         cellMDLimited leastSquares 1.0;
}

divSchemes
{
    default         none;
}

laplacianSchemes
{
    default         Gauss linear corrected;
}

limiter quadraticMUSCL Minmod;
limiterV quadraticMUSCL Minmod;
interpolationSchemes
{
    default             linear;
    reconstruct(rho)    $limiter;
    reconstruct(U)      $limiterV;
    reconstruct(e)      $limiter;
    reconstruct(p)      $limiter;
    reconstruct(speedOfSound)      $limiter;
}

snGradSchemes
{
    default         corrected;
}

// ************************************************************************* //
