/*--------------------------------*- C++ -*----------------------------------*\
  | =========                 |                                                 |
  | \\      /  F ield         | OpenFOAM: The Open Source CFD Toolbox           |
  |  \\    /   O peration     | Version:  2.3.0                                 |
  |   \\  /    A nd           | Web:      www.OpenFOAM.org                      |
  |    \\/     M anipulation  |                                                 |
  \*---------------------------------------------------------------------------*/
FoamFile
{
  version     2.0;
  format      ascii;
  class       dictionary;
  location    "system";
  object      setFieldsDict;
}
// * * * * * * * * * * * * * * * * * * * * * * * * * * * * * * * * * * * * * //

defaultFieldValues
(
    volScalarFieldValue p              3.7e10
    volScalarFieldValue alpha.copper   0
);

regions
(
    boxToCell
    {
        box (0.5 0 0) (1.0 1 1);

        fieldValues
        (
            volScalarFieldValue p               1.0e5
            volScalarFieldValue alpha.copper    1
        );
    }
 );

// ************************************************************************* //
