/*--------------------------------*- C++ -*----------------------------------*\
| =========                 |                                                 |
| \\      /  F ield         | OpenFOAM: The Open Source CFD Toolbox           |
|  \\    /   O peration     | Version:  2.3.0                                 |
|   \\  /    A nd           | Web:      www.OpenFOAM.org                      |
|    \\/     M anipulation  |                                                 |
\*---------------------------------------------------------------------------*/
FoamFile
{
    version     2.0;
    format      ascii;
    class       dictionary;
    location    "system";
    object      fvSchemes;
}
// * * * * * * * * * * * * * * * * * * * * * * * * * * * * * * * * * * * * * //

fluxSchemes
{
    gas
    {
        fluxScheme  HLLC;
    }
    particles
    {
        fluxScheme          AUSM+Up;
        alphaMinFriction    0.5;
        alphaMax            0.63;
    }
}

ddtSchemes
{
    default         Euler;
    timeIntegrator  RK4SSP;
}

gradSchemes
{
    default         cellMDLimited leastSquares 1.0;
}

divSchemes
{
    default         none;
}

laplacianSchemes
{
    default         Gauss linear corrected;
}

interpolationSchemes
{
    default             cubic;
    reconstruct(alpha)  linearMUSCL vanLeer;
    reconstruct(rho)    linearMUSCL vanLeer;
    reconstruct(U)      linearMUSCL vanLeer;
    reconstruct(e)      linearMUSCL vanLeer;
    reconstruct(p)      linearMUSCL vanLeer;
    reconstruct(speedOfSound) linearMUSCL vanLeer;
    "reconstruct\(Y.*\)" linearMUSCL vanLeer;
    reconstruct(Theta)  linearMUSCL vanLeer;
}

snGradSchemes
{
    default         corrected;
}


// ************************************************************************* //
