/*--------------------------------*- C++ -*----------------------------------*\
| =========                 |                                                 |
| \\      /  F ield         | OpenFOAM: The Open Source CFD Toolbox           |
|  \\    /   O peration     | Version:  2.3.0                                 |
|   \\  /    A nd           | Web:      www.OpenFOAM.org                      |
|    \\/     M anipulation  |                                                 |
\*---------------------------------------------------------------------------*/
FoamFile
{
    version     2.0;
    format      ascii;
    class       dictionary;
    location    "system";
    object      fvSchemes;
}
// * * * * * * * * * * * * * * * * * * * * * * * * * * * * * * * * * * * * * //

fluxScheme      HLLC;

ddtSchemes
{
    default         Euler;
    timeIntegrator  RK2SSP;
}

gradSchemes
{
    default         cellMDLimited leastSquares 1.0;
}

divSchemes
{
    default             none;
    div(tauMC)          Gauss linear;
    div(rhoPhi,k)       Riemann rho;
    div(rhoPhi,epsilon) Riemann rho;
    div(rhoPhi,lambda.c4)  Riemann rho;
}

laplacianSchemes
{
    default         Gauss linear corrected;
}

interpolationSchemes
{
    default             cubic;
    reconstruct(alpha)  Minmod;
    reconstruct(rho)    Minmod;
    reconstruct(U)      MinmodV;
    reconstruct(e)      Minmod;
    reconstruct(p)      Minmod;
    reconstruct(c)      Minmod;

    reconstruct(k)      Minmod;
    reconstruct(epsilon) Minmod;
    reconstruct(lambda.c4) Minmod;
}

snGradSchemes
{
    default         corrected;
}

wallDist
{
    method meshWave;
}


// ************************************************************************* //
