/*--------------------------------*- C++ -*----------------------------------*\
| =========                 |                                                 |
| \\      /  F ield         | OpenFOAM: The Open Source CFD Toolbox           |
|  \\    /   O peration     | Version:  2.3.0                                 |
|   \\  /    A nd           | Web:      www.OpenFOAM.org                      |
|    \\/     M anipulation  |                                                 |
\*---------------------------------------------------------------------------*/
FoamFile
{
    version     2.0;
    format      ascii;
    class       dictionary;
    location    "system";
    object      setFieldsDict;
}
// * * * * * * * * * * * * * * * * * * * * * * * * * * * * * * * * * * * * * //

field alpha.c4;
maxCells 1000000;
maxRefinement 7;
nBufferLayers 10;

defaultFieldValues
(
    volScalarFieldValue alpha.c4    0
);


regions
(
    cylinderToCell // Use cylinder for 3D
    {
        p1 (0 0 0);
        p2 (0 0 1);
        radius 0.1;
        backup
        {
            p1 (0 0 0);
            p2 (0 0 1);
            radius 0.5;
        }

        fieldValues
        (
            volScalarFieldValue alpha.c4    1
            volScalarFieldValue error       1 //Refine all cells in sphere
        );
    }
);


// ************************************************************************* //
