/*--------------------------------*- C++ -*----------------------------------*\
| =========                 |                                                 |
| \\      /  F ield         | OpenFOAM: The Open Source CFD Toolbox           |
|  \\    /   O peration     | Version:  5                                     |
|   \\  /    A nd           | Web:      www.OpenFOAM.org                      |
|    \\/     M anipulation  |                                                 |
\*---------------------------------------------------------------------------*/
FoamFile
{
    version     2.0;
    format      ascii;
    class       dictionary;
    object      surfaceFeatureExtractDict;
}
// * * * * * * * * * * * * * * * * * * * * * * * * * * * * * * * * * * * * * //

surfaces
(
    "L_Wall.stl"
);

// Identify a feature when angle between faces < includedAngle
includedAngle   120;

subsetFeatures
{
    // Keep nonManifold edges (edges with >2 connected faces)
    nonManifoldEdges       yes;

    // Keep open edges (edges with 1 connected face)
    openEdges       yes;
}


// ************************************************************************* //
