/*--------------------------------*- C++ -*----------------------------------*\
  =========                 |
  \\      /  F ield         | OpenFOAM: The Open Source CFD Toolbox
   \\    /   O peration     | Website:  https://openfoam.org
    \\  /    A nd           | Version:  7
     \\/     M anipulation  |
\*---------------------------------------------------------------------------*/
FoamFile
{
    version     2.0;
    format      binary;
    class       polyBoundaryMesh;
    location    "0/polyMesh";
    object      boundary;
}
// * * * * * * * * * * * * * * * * * * * * * * * * * * * * * * * * * * * * * //

4
(
    ground
    {
        type            wall;
        inGroups        List<word> 1(wall);
        nFaces          634;
        startFace       27501;
    }
    midPlane1
    {
        type            symmetry;
        inGroups        List<word> 1(symmetry);
        nFaces          403;
        startFace       28135;
    }
    midPlane2
    {
        type            symmetry;
        inGroups        List<word> 1(symmetry);
        nFaces          634;
        startFace       28538;
    }
    outlet
    {
        type            patch;
        nFaces          300;
        startFace       29172;
    }
)

// ************************************************************************* //
