/*--------------------------------*- C++ -*----------------------------------*\
  =========                 |
  \\      /  F ield         | OpenFOAM: The Open Source CFD Toolbox
   \\    /   O peration     | Website:  https://openfoam.org
    \\  /    A nd           | Version:  9
     \\/     M anipulation  |
\*---------------------------------------------------------------------------*/
FoamFile
{
    format      ascii;
    class       dictionary;
    object      detonatingPhaseFluidBlastThermo;
}
// * * * * * * * * * * * * * * * * * * * * * * * * * * * * * * * * * * * * * //

uTransport
(
    const
    sutherland
    polynomial
    logPolynomial
    WLF
    tabulated
);

rTransport
(
    const
    sutherland
    polynomial
    logPolynomial
    WLF
    tabulated
);

uThermo
(
    eConst
    hConst
    ePower
    ePolynomial
    eTabulated
    hPower
    hPolynomial
    hTabulated
    janaf
);

rThermo
(
    eConst
    hConst
    tabulated
    janaf
);

uEquationOfState
(
    CochranChan
    Murnaghan
    BirchMurnaghan2
    BirchMurnaghan3
    solidJWL
);

rEquationOfState
(
    perfectGas
    AbelNobel
    JWLC
    idealGas
    stiffenedGas
    vanderWaals
    JWL
    LSZK
    BKW
    DoanNickel
    Tait
    BWR
    linearTillotson
    Tillotson
);

specie
(
    specieBlast
);

codeOptions
#{
EXE_INC = \
    -I$(LIB_SRC)/transportModels/lnInclude \
    -I$(LIB_SRC)/thermophysicalModels/thermophysicalProperties/lnInclude \
    -I$(LIB_SRC)/thermophysicalModels/basic/lnInclude \
    -I$(LIB_SRC)/finiteVolume/lnInclude \
    -I$(BLAST_DIR)/src/finiteVolume/lnInclude \
    -I$(BLAST_DIR)/src/thermodynamicModels/lnInclude
#};


// ************************************************************************* //
