/*--------------------------------*- C++ -*----------------------------------*\
  =========                 |
  \\      /  F ield         | OpenFOAM: The Open Source CFD Toolbox
   \\    /   O peration     | Website:  https://openfoam.org
    \\  /    A nd           | Version:  9
     \\/     M anipulation  |
\*---------------------------------------------------------------------------*/
FoamFile
{
    format      ascii;
    class       dictionary;
    object      reactingFluidBlastThermo;
}
// * * * * * * * * * * * * * * * * * * * * * * * * * * * * * * * * * * * * * //

transport
(
    const
    sutherland
    polynomial
    logPolynomial
    WLF
);

thermo
(
    eConst
    hConst
    ePower
    ePolynomial
    hPower
    hPolynomial
    janaf
);

equationOfState
(
    perfectGas
    AbelNobel
    BKW
    VanderWaals
    PengRobinson
);

specie
(
    specieBlast
);

codeOptions
#{
EXE_INC = \
    -I$(LIB_SRC)/ODE/lnInclude \
    -I$(LIB_SRC)/transportModels/lnInclude \
    -I$(LIB_SRC)/thermophysicalModels/thermophysicalProperties/lnInclude \
    -I$(LIB_SRC)/thermophysicalModels/basic/lnInclude \
    -I$(LIB_SRC)/thermophysicalModels/reactionThermo/lnInclude \
    -I$(LIB_SRC)/finiteVolume/lnInclude \
    -I$(LIB_SRC)/meshTools/lnInclude \
    -I$(BLAST_DIR)/src/numerics/lnInclude \
    -I$(BLAST_DIR)/src/finiteVolume/lnInclude \
    -I$(BLAST_DIR)/src/thermodynamicModels/lnInclude
#};


// ************************************************************************* //
