/*--------------------------------*- C++ -*----------------------------------*\
| =========                 |                                                 |
| \\      /  F ield         | OpenFOAM: The Open Source CFD Toolbox           |
|  \\    /   O peration     | Version:  2.3.0                                 |
|   \\  /    A nd           | Web:      www.OpenFOAM.org                      |
|    \\/     M anipulation  |                                                 |
\*---------------------------------------------------------------------------*/
FoamFile
{
    version     2.0;
    format      ascii;
    class       dictionary;
    location    "system";
    object      setFieldsDict;
}
// * * * * * * * * * * * * * * * * * * * * * * * * * * * * * * * * * * * * * //

fields (alpha.c4);
nBufferLayers 1;

defaultFieldValues
(
    volScalarFieldValue alpha.c4 0
);


regions
(
    boxToCell
    {
        box (0 0 0) (0.5 0.25 0.25);
        refineInternal yes;
        level 4;

        fieldValues
        (
            volScalarFieldValue alpha.c4    1
        );
    }
);


// ************************************************************************* //
