/*--------------------------------*- C++ -*----------------------------------*\
| =========                 |                                                 |
| \\      /  F ield         | OpenFOAM: The Open Source CFD Toolbox           |
|  \\    /   O peration     | Version:  2.3.0                                 |
|   \\  /    A nd           | Web:      www.OpenFOAM.org                      |
|    \\/     M anipulation  |                                                 |
\*---------------------------------------------------------------------------*/
FoamFile
{
    version     2.0;
    format      ascii;
    class       dictionary;
    location    "system";
    object      fvSolution;
}
// * * * * * * * * * * * * * * * * * * * * * * * * * * * * * * * * * * * * * //

solvers
{
    p
    {
        solver           PCG;
        preconditioner   DIC;
        tolerance        1e-10;
        relTol           0.1;
    }

    pFinal
    {
        $p;
        tolerance        1e-10;
        relTol           0.0;
    }

    "(rho|rhoU|rhoE|alpha)"
    {
        solver          diagonal;
    }
    "(rho|rhoU|rhoE|alpha)Final"
    {
        solver          diagonal;
    }

    "(U|e)"
    {
        solver          PBiCGStab;
        preconditioner  DILU;
        tolerance       1e-8;
        relTol          0.1;
    }

    "(U|e)Final"
    {
        $U;
        relTol          0;
    }

    "(k|epsilon)"
    {
        solver          PBiCGStab;
        preconditioner  DILU;
        tolerance       1e-6;
        relTol          0.1;
    }

    "(k|epsilon)Final"
    {
        $k;
        relTol          0;
    }

    "Yi.*"
    {
        $kFinal;
    }
}

PIMPLE
{
    momentumPredictor no;
    nOuterCorrectors  1;
    nCorrectors     2;
    nNonOrthogonalCorrectors 0;
}


// ************************************************************************* //
