/*--------------------------------*- C++ -*----------------------------------*\
| =========                 |                                                 |
| \\      /  F ield         | OpenFOAM: The Open Source CFD Toolbox           |
|  \\    /   O peration     | Version:  2.3.0                                 |
|   \\  /    A nd           | Web:      www.OpenFOAM.org                      |
|    \\/     M anipulation  |                                                 |
\*---------------------------------------------------------------------------*/
FoamFile
{
    version     2.0;
    format      ascii;
    class       dictionary;
    location    "constant";
    object      MieGruneisenEOSProperties;
}
// * * * * * * * * * * * * * * * * * * * * * * * * * * * * * * * * * * * * * //

phases (c4 air);

c4
{
    type detonating;
    reactants
    {
        thermoType
        {
            transport   const;
            thermo      eConst;
            equationOfState BirchMurnaghan3;
        }
        equationOfState
        {
            rho0            1601;
            K0              9.6e9;
            K0Prime         6.6;
            Gamma           0.35;
            pRef            101298;
        }
        specie
        {
            molWeight       55.0;
        }
        transport
        {
            mu              1.81e-5;        // Viscosity
            Pr              1;              // Prandtl number
        }
        thermodynamics
        {
            Cv              1400;           // Heat capacity
            Hf              0.0;
        }
    }
    products
    {
        thermoType
        {
            transport   const;
            thermo      eConst;
            equationOfState JWL;
        }
        equationOfState
        {
            rho0      1601;
            A         609.77e9;
            B         12.95e9;
            R1        4.50;
            R2        1.4;
            omega     0.25;
        }
        specie
        {
            molWeight       55.0;
        }
        transport
        {
            mu              1.81e-5;        // Viscosity
            Pr              1;              // Prandtl number
        }
        thermodynamics
        {
            Cv              1400;           // Heat capacity
            Hf              0.0;
        }
    }

    activationModel ArrheniusRate;

    initiation
    {
        E0          9.0e9; // Detonation energy
        points     ((-0.3048 0.3048 0)); // m center top detonated
        radius     0.01;
        vDet       7850; // 8285; // m/s

        diameterModel qbmm;

        Ts      2000;
        Tign    50a0qz;
        ALow    6.25e10;
        EaLow   112000;
        AHigh   1e8;
        EaHigh  560000;

    }

    residualRho     1e-6;           // Minimum density of the phase
    residualAlpha   1e-10;          // Minimum volume fraction used for division
}

air
{
    type basic;
    thermoType
    {
        transport   const;
        thermo      eConst;
        equationOfState idealGas;
    }
    equationOfState
    {
        gamma           1.4;            // Heat capactiy ratio
    }
    specie
    {
        molWeight       28.97;
    }
    transport
    {
        mu              1.81e-5;        // Viscosity
        Pr              1;
    }
    thermodynamics
    {
        type        eConst;
        Cv          718;
        Hf          0;
    }

    residualRho     1e-6;
    residualAlpha   1e-10;
}

// ************************************************************************* //
