/*--------------------------------*- C++ -*----------------------------------*\
  =========                 |
  \\      /  F ield         | OpenFOAM: The Open Source CFD Toolbox
   \\    /   O peration     | Website:  https://openfoam.org
    \\  /    A nd           | Version:  7
     \\/     M anipulation  |
\*---------------------------------------------------------------------------*/
FoamFile
{
    version     2.0;
    format      ascii;
    class       dictionary;
    location    "system";
    object      fvSchemes;
}
// * * * * * * * * * * * * * * * * * * * * * * * * * * * * * * * * * * * * * //

ddtSchemes
{
    default         Euler;
    timeIntegrator  RK4SSP;
}

fluxScheme          HLLCP;

gradSchemes
{
    default         Gauss linear;
}

divSchemes
{
    default         none;

    div(phi,U)      Gauss limitedLinearV 1;
    div(phi,Yi_h)   Gauss limitedLinear 1;
    div(phi,K)      Gauss limitedLinear 1;
    div(phid,p)     Gauss limitedLinear 1;
    div(phi,epsilon) Gauss limitedLinear 1;
    div(phi,k) Gauss limitedLinear 1;

    div(rhoPhi,Yi)  Riemann;
    div(((rho*nuEff)*dev2(T(grad(U))))) Gauss linear;

    div(tauMC)      Gauss linear;
}

laplacianSchemes
{
    default         Gauss linear orthogonal;
}

interpolationSchemes
{
    default             linear;
    reconstruct(rho)    Minmod;
    reconstruct(U)      MinmodV;
    reconstruct(e)      Minmod;
    reconstruct(p)      Minmod;
    reconstruct(c)      Minmod;
    reconstruct(Y)      Minmod;
    "reconstruct\(.*\)" Minmod;
}

snGradSchemes
{
    default         orthogonal;
}


// ************************************************************************* //
