/*--------------------------------*- C++ -*----------------------------------*\
  | =========                 |                                                 |
  | \\      /  F ield         | OpenFOAM: The Open Source CFD Toolbox           |
  |  \\    /   O peration     | Version:  2.3.0                                 |
  |   \\  /    A nd           | Web:      www.OpenFOAM.org                      |
  |    \\/     M anipulation  |                                                 |
  \*---------------------------------------------------------------------------*/
FoamFile
{
  version     2.0;
  format      ascii;
  class       dictionary;
  location    "system";
  object      setFieldsDict;
}
// * * * * * * * * * * * * * * * * * * * * * * * * * * * * * * * * * * * * * //

defaultFieldValues
(
    volScalarFieldValue p               10129800
    volScalarFieldValue alpha.particles 0
    volScalarFieldValue rho.gas         117.5696379
);

regions
(
    boxToCell
    {
        box (0.03 -1 -1) (1 1 1);

        fieldValues
        (
            volScalarFieldValue p               101298
            volScalarFieldValue alpha.particles 0.4
            volScalarFieldValue rho.gas         1.175696379
        );
    }
 );

// ************************************************************************* //
