/*--------------------------------*- C++ -*----------------------------------*\
| =========                 |                                                 |
| \\      /  F ield         | OpenFOAM: The Open Source CFD Toolbox           |
|  \\    /   O peration     | Version:  2.3.0                                 |
|   \\  /    A nd           | Web:      www.OpenFOAM.org                      |
|    \\/     M anipulation  |                                                 |
\*---------------------------------------------------------------------------*/
FoamFile
{
    version     2.0;
    format      ascii;
    class       dictionary;
    location    "system";
    object      fvSchemes;
}
// * * * * * * * * * * * * * * * * * * * * * * * * * * * * * * * * * * * * * //

fluxSchemes
{
    gas
    {
        fluxScheme  HLLC;
    }
    "particles.*"
    {
        fluxScheme          AUSM+Up;
    }
    "coal.*"
    {
        fluxScheme          AUSM+Up;
    }
}

ddtSchemes
{
    default         Euler;
    timeIntegrator  RK4SSP;
}

gradSchemes
{
    default         leastSquares;
}

divSchemes
{
    default         none;
}

laplacianSchemes
{
    default         Gauss linear corrected;
}

interpolationSchemes
{
    default             cubic;
    reconstruct(alpha)  Minmod;
    reconstruct(rho)    Minmod;
    reconstruct(U)      MinmodV;
    reconstruct(e)      Minmod;
    reconstruct(p)      Minmod;
    reconstruct(speedOfSound) Minmod;
    reconstruct(Theta)  Minmod;
}

snGradSchemes
{
    default         corrected;
}


// ************************************************************************* //
