/*--------------------------------*- C++ -*----------------------------------*\
  =========                 |
  \\      /  F ield         | OpenFOAM: The Open Source CFD Toolbox
   \\    /   O peration     | Website:  https://openfoam.org
    \\  /    A nd           | Version:  7
     \\/     M anipulation  |
\*---------------------------------------------------------------------------*/
FoamFile
{
    version     2.0;
    format      ascii;
    class       dictionary;
    object      blockMeshDict;
}
// * * * * * * * * * * * * * * * * * * * * * * * * * * * * * * * * * * * * * //
scale 1.0;

#include "../../geometry_2D"

blocks
(
    hex (2 3 6 5 2 9 11 5) ($nx0 $ny 1 ) simpleGrading (1 1 1)
    hex (3 4 7 6 9 10 12 11) ($nx1 $ny 1) simpleGrading (1 1 1)
);

edges
(
);

boundary
(
    outlet
    {
        type patch;
        faces
        (
            (4 7 12 10)
            (7 6 11 12)
            (6 5 5 11)
        );
    }
    ground
    {
        type wall;
        faces
        (
            (3 4 10 9)
        );
    }
    air_to_plate
    {
        type patch;
        sampleMode nearestPatchFace;
        sampleRegion plate;
        samplePatch plate_to_air;
        faces
        (
            (2 3 9 2)
        );
    }
    wedge0
    {
        type wedge;
        faces
        (
            (2 3 6 5)
            (3 4 7 6)
        );
    }
    wedge1
    {
        type wedge;
        faces
        (
            (2 9 11 5)
            (9 10 12 11)
        );
    }
);

mergePatchPairs
(
);


// ************************************************************************* //
