/*--------------------------------*- C++ -*----------------------------------*\
| =========                 |                                                 |
| \\      /  F ield         | OpenFOAM: The Open Source CFD Toolbox           |
|  \\    /   O peration     | Version:  2.3.0                                 |
|   \\  /    A nd           | Web:      www.OpenFOAM.org                      |
|    \\/     M anipulation  |                                                 |
\*---------------------------------------------------------------------------*/
FoamFile
{
    version     2.0;
    format      ascii;
    class       dictionary;
    location    "system";
    object      setFieldsDict;
}
// * * * * * * * * * * * * * * * * * * * * * * * * * * * * * * * * * * * * * //

#include "../../properties"

fields (alpha.tnt);
nBufferLayers 1;

defaultFieldValues
(
    volScalarFieldValue alpha.tnt    0
);


regions
(
    sphericalMassToCell
    {
        centre  (0 $R 0);
        mass    $W;
        rho     1630;

        backup
        {
            centre  (0 $R 0);
            radius 0.25;
        }
        refineInternal no;
        level 3;

        fieldValues
        (
            volScalarFieldValue alpha.tnt    1
        );
    }
);


// ************************************************************************* //
