/*--------------------------------*- C++ -*----------------------------------*\
  =========                 |
  \\      /  F ield         | OpenFOAM: The Open Source CFD Toolbox
   \\    /   O peration     | Website:  https://openfoam.org
    \\  /    A nd           | Version:  dev
     \\/     M anipulation  |
\*---------------------------------------------------------------------------*/
FoamFile
{
    version     2.0;
    format      ascii;
    class       dictionary;
    object      dynamicMeshDict;
}
// * * * * * * * * * * * * * * * * * * * * * * * * * * * * * * * * * * * * * //

dynamicFvMesh   adaptiveFvMesh;

errorEstimator Lohner;      // Model used to estimate error
deltaField p;               // Field used to estimate error
epsilon 0.5;                // Error coefficient

beginUnrefine 5e-5;         // At what time does unrefinement start (default is 0)

// How often to refine
refineInterval  5;

// Field to be refinement on
field           error;

// Refine field in between lower..upper (varies based on errorEstimator)
lowerRefineLevel 0.2;
upperRefineLevel 1e6;       // Should be very high for adaptiveFvMesh

// If value < unrefineLevel unrefine
unrefineLevel   0.1;

// Number of cells refined around high error cells
nBufferLayers   3;

// Refine cells only up to maxRefinement levels
maxRefinement   4;

// Stop refinement if maxCells reached
maxCells        10000000;

// Flux field and corresponding velocity field. Fluxes on changed
// faces get recalculated by interpolating the velocity. Use 'none'
// on surfaceScalarFields that do not need to be reinterpolated.
correctFluxes
(
    (phi none)
    (own none)
    (nei none)
    (rhoPhi none)
    (alphaPhi.air none)
    (alphaPhi.c4 none)
    (rhoPhi none)
    (alphaRhoPhi.air none)
    (alphaRhoPhi.c4 none)
    (rhoEPhi none)
    (rhoUPhi none)
);

// Write the refinement level as a volScalarField
dumpLevel       true;

// ************************************************************************* //
