/*--------------------------------*- C++ -*----------------------------------*\
  =========                 |
  \\      /  F ield         | OpenFOAM: The Open Source CFD Toolbox
   \\    /   O peration     | Website:  https://openfoam.org
    \\  /    A nd           | Version:  dev
     \\/     M anipulation  |
\*---------------------------------------------------------------------------*/
FoamFile
{
    version     2.0;
    format      ascii;
    class       dictionary;
    location    "system";
    object      momentGenerationDict;
}
// * * * * * * * * * * * * * * * * * * * * * * * * * * * * * * * * * * * * * //

phases
(
    particles
);

boundaries
{
    inlet
    {
        type            fixedValue;
        value           uniform 0;
    }

    outlet
    {
        type            zeroGradient;
    }

    bottom
    {
        type            symmetryPlane;
    }

    top
    {
        type            symmetryPlane;
    }

    obstacle
    {
        type            zeroGradient;
    }

    defaultFaces
    {
        type            empty;
    }
}

particles
{
    type                weightsAndAbscissae;
    weightDimension     [0 0 0 0 0 0 0];
    abscissaDimension0  [0 1 0 0 0 0 0];
    abscissaDimension   [0 1 -1 0 0 0 0];

    default
    {
        node0
        {
            weight      uniform 0.001;
            abscissae0  uniform 20e-6;
            abscissae1  uniform 1041;
            abscissae2  uniform 0;
        }
    }
}


// ************************************************************************* //
